%chk=loop4.holoCaM-CaMKII.run10.water2.chk
%nprocshared=20
%mem=10GB
%nosave
#b3lyp/svp scf=(tight,noincore,xqc) Test 
#IOP(5/87=12) Density=Current Pop=(MK,readradii) iop(6/33=2) iop(6/42=6)

loop4.holoCaM-CaMKII.run10.water2 

   -3  1 
   C     77.71000000    57.64000000    32.46000000
   C     76.86000000    56.38000000    32.61000000
   O     75.63000000    56.49000000    32.65000000
   H     78.65700000    57.38400000    31.98600000
   H     77.18000000    58.36500000    31.84300000
   H     77.90100000    58.06900000    33.44300000
   N     77.49000000    55.21000000    32.58000000
   C     76.99000000    53.85000000    32.47000000
   C     76.38000000    53.32000000    33.77000000
   O     77.10000000    53.30000000    34.76000000
   C     78.05000000    52.91000000    31.92000000
   C     77.52000000    51.49000000    31.90000000
   O     76.29000000    51.27000000    31.80000000
   O     78.37000000    50.57000000    31.90000000
   H     78.50000000    55.20000000    32.55000000
   H     76.22000000    54.01000000    31.71000000
   H     78.94000000    52.90000000    32.55000000
   H     78.27000000    53.15000000    30.87000000
   N     75.10000000    52.96000000    33.86000000
   C     74.30000000    52.69000000    35.03000000
   C     74.34000000    51.20000000    35.35000000
   O     74.50000000    50.85000000    36.52000000
   C     72.88000000    53.22000000    34.91000000
   C     72.78000000    54.66000000    34.41000000
   C     72.07000000    53.14000000    36.21000000
   C     73.54000000    55.73000000    35.19000000
   H     74.57000000    52.99000000    33.00000000
   H     74.78000000    53.23000000    35.84000000
   H     72.34000000    52.57000000    34.22000000
   H     71.74000000    54.97000000    34.53000000
   H     73.06000000    54.79000000    33.36000000
   H     71.80000000    52.09000000    36.36000000
   H     72.56000000    53.63000000    37.05000000
   H     71.10000000    53.64000000    36.14000000
   H     74.60000000    55.48000000    35.11000000
   H     73.25000000    56.65000000    34.69000000
   H     73.20000000    55.82000000    36.22000000
   N     74.28000000    50.37000000    34.31000000
   C     74.00000000    48.96000000    34.52000000
   C     75.23000000    48.11000000    34.26000000
   O     75.18000000    46.90000000    34.46000000
   C     72.72000000    48.62000000    33.77000000
   C     72.54000000    49.12000000    32.34000000
   O     73.52000000    49.36000000    31.60000000
   O     71.43000000    49.26000000    31.77000000
   H     74.33000000    50.65000000    33.34000000
   H     73.74000000    48.75000000    35.55000000
   H     71.96000000    49.08000000    34.41000000
   H     72.60000000    47.54000000    33.83000000
   N     76.36000000    48.70000000    33.84000000
   C     77.65000000    48.05000000    33.80000000
   C     77.71000000    47.09000000    32.62000000
   O     77.75000000    45.86000000    32.69000000
   H     76.31000000    49.64000000    33.48000000
   H     77.89000000    47.50000000    34.71000000
   H     78.37000000    48.86000000    33.67000000
   N     77.79000000    47.65000000    31.41000000
   C     78.04000000    47.01000000    30.14000000
   C     79.09000000    47.72000000    29.28000000
   O     79.62000000    47.13000000    28.34000000
   C     76.71000000    46.88000000    29.41000000
   C     75.93000000    48.16000000    29.15000000
   O     74.71000000    48.09000000    28.86000000
   O     76.51000000    49.26000000    29.05000000
   H     77.59000000    48.64000000    31.40000000
   H     78.35000000    45.97000000    30.22000000
   H     76.11000000    46.24000000    30.05000000
   H     76.84000000    46.36000000    28.45000000
   N     79.34000000    48.98000000    29.64000000
   C     80.29000000    49.81000000    28.93000000
   C     79.77000000    50.60000000    27.74000000
   O     80.53000000    51.10000000    26.91000000
   H     78.77000000    49.43000000    30.34000000
   H     81.01000000    49.12000000    28.49000000
   H     80.84000000    50.49000000    29.58000000
   N     78.45000000    50.70000000    27.61000000
   C     77.82000000    51.72000000    26.78000000
   C     76.78000000    52.54000000    27.52000000
   O     76.58000000    52.32000000    28.71000000
   C     77.28000000    51.08000000    25.51000000
   C     78.28000000    50.40000000    24.57000000
   C     77.60000000    49.91000000    23.30000000
   N     77.68000000    48.62000000    22.97000000
   O     77.08000000    50.76000000    22.58000000
   H     77.88000000    50.35000000    28.37000000
   H     78.65000000    52.35000000    26.47000000
   H     76.69000000    51.82000000    24.97000000
   H     76.57000000    50.33000000    25.84000000
   H     78.70000000    49.55000000    25.11000000
   H     79.01000000    51.13000000    24.20000000
   H     78.10000000    48.01000000    23.66000000
   H     77.17000000    48.28000000    22.17000000
   N     76.35000000    53.57000000    26.79000000
   C     75.45000000    54.60000000    27.28000000
   C     74.28000000    54.63000000    26.31000000
   O     74.41000000    54.95000000    25.13000000
   C     76.12000000    55.94000000    27.56000000
   C     75.28000000    57.19000000    27.80000000
   C     77.23000000    55.93000000    28.61000000
   H     76.93000000    53.73000000    25.98000000
   H     75.05000000    54.29000000    28.25000000
   H     76.71000000    56.16000000    26.66000000
   H     75.98000000    58.03000000    27.81000000
   H     74.59000000    57.30000000    26.96000000
   H     74.74000000    57.23000000    28.74000000
   H     77.81000000    56.85000000    28.54000000
   H     76.79000000    55.76000000    29.59000000
   H     77.94000000    55.11000000    28.48000000
   N     73.09000000    54.26000000    26.79000000
   C     71.83000000    54.42000000    26.09000000
   C     71.24000000    55.81000000    26.29000000
   O     71.53000000    56.47000000    27.28000000
   C     70.86000000    53.45000000    26.76000000
   C     69.40000000    53.66000000    26.38000000
   N     68.43000000    53.50000000    27.28000000
   O     69.08000000    53.83000000    25.20000000
   H     73.16000000    54.14000000    27.79000000
   H     71.84000000    54.09000000    25.05000000
   H     70.96000000    53.54000000    27.84000000
   H     71.09000000    52.43000000    26.43000000
   H     68.64000000    53.25000000    28.23000000
   H     67.51000000    53.67000000    26.90000000
   N     70.32000000    56.25000000    25.43000000
   C     69.60000000    57.50000000    25.53000000
   C     69.12000000    57.82000000    26.94000000
   O     69.37000000    58.89000000    27.49000000
   C     68.46000000    57.57000000    24.51000000
   C     67.82000000    58.93000000    24.44000000
   C     68.52000000    60.14000000    24.34000000
   C     66.43000000    59.03000000    24.63000000
   C     67.85000000    61.36000000    24.41000000
   C     65.76000000    60.25000000    24.72000000
   C     66.44000000    61.46000000    24.50000000
   O     65.81000000    62.67000000    24.54000000
   H     70.15000000    55.73000000    24.58000000
   H     70.26000000    58.32000000    25.25000000
   H     67.73000000    56.80000000    24.77000000
   H     68.81000000    57.38000000    23.50000000
   H     69.60000000    60.02000000    24.28000000
   H     65.86000000    58.13000000    24.84000000
   H     68.45000000    62.26000000    24.40000000
   H     64.70000000    60.19000000    24.95000000
   H     64.86000000    62.60000000    24.69000000
   N     68.44000000    56.87000000    27.57000000
   C     67.88000000    57.07000000    28.89000000
   C     68.87000000    56.94000000    30.04000000
   O     68.52000000    57.20000000    31.19000000
   C     66.72000000    56.09000000    29.02000000
   C     65.61000000    56.03000000    27.96000000
   C     64.46000000    55.16000000    28.41000000
   O     64.61000000    53.92000000    28.47000000
   O     63.36000000    55.71000000    28.65000000
   H     68.23000000    55.97000000    27.16000000
   H     67.40000000    58.04000000    29.01000000
   H     66.19000000    56.29000000    29.94000000
   H     67.18000000    55.11000000    29.13000000
   H     66.16000000    55.63000000    27.11000000
   H     65.31000000    57.05000000    27.70000000
   N     70.15000000    56.64000000    29.80000000
   C     71.32000000    56.87000000    30.63000000
   C     71.92000000    58.25000000    30.41000000
   O     72.21000000    58.93000000    31.40000000
   C     72.37000000    55.79000000    30.42000000
   C     71.87000000    54.39000000    30.77000000
   C     72.98000000    53.37000000    30.59000000
   O     73.33000000    52.70000000    31.59000000
   O     73.40000000    53.10000000    29.44000000
   H     70.36000000    56.52000000    28.82000000
   H     71.01000000    56.72000000    31.66000000
   H     73.29000000    56.00000000    30.96000000
   H     72.78000000    55.80000000    29.42000000
   H     71.03000000    54.18000000    30.11000000
   H     71.55000000    54.41000000    31.81000000
   N     72.10000000    58.69000000    29.16000000
   C     72.57000000    59.99000000    28.72000000
   H     73.55500000    59.88500000    28.26600000
   H     71.87500000    60.39900000    27.98700000
   H     72.63400000    60.66200000    29.57600000
   H     71.77000000    58.07000000    28.43000000
  Ca     74.62000000    50.98000000    29.94000000
   O     74.54000000    50.33000000    27.39000000
   H     75.10000000    49.56000000    27.36000000
   H     73.86000000    50.17000000    26.74000000
   O     71.99000000    50.57000000    29.50000000
   H     71.60000000    50.22000000    30.30000000
   H     71.37000000    50.36000000    28.81000000

Ca 1.00



