%chk=loop1.apoCaM-CA-Ng.Init293.run77.water5.chk
%nprocshared=20
%mem=10GB
%nosave
#b3lyp/svp scf=(tight,noincore,xqc) Test 
#IOP(5/87=12) Density=Current Pop=(MK,readradii) iop(6/33=2) iop(6/42=6)

loop1.apoCaM-CA-Ng.Init293.run77.water5 

   0  1 
   C     82.10000000    99.39000000    44.05000000
   C     83.52000000    99.69000000    43.59000000
   O     84.05000000    99.09000000    42.66000000
   H     81.42100000    99.45800000    43.20000000
   H     82.05800000    98.38400000    44.46800000
   H     81.80300000   100.11300000    44.81000000
   N     84.14000000   100.64000000    44.29000000
   C     85.45000000   101.22000000    44.08000000
   C     86.54000000   100.24000000    44.51000000
   O     87.70000000   100.36000000    44.12000000
   C     85.56000000   102.57000000    44.78000000
   C     85.36000000   102.47000000    46.29000000
   O     84.21000000   102.30000000    46.73000000
   O     86.34000000   102.39000000    47.06000000
   H     83.64000000   101.02000000    45.08000000
   H     85.61000000   101.36000000    43.01000000
   H     84.84000000   103.24000000    44.33000000
   H     86.52000000   103.04000000    44.57000000
   N     86.27000000    99.29000000    45.40000000
   C     87.27000000    98.42000000    46.00000000
   C     87.81000000    97.39000000    45.03000000
   O     87.07000000    96.83000000    44.22000000
   C     86.75000000    97.84000000    47.31000000
   C     85.98000000    98.83000000    48.17000000
   C     86.88000000    99.85000000    48.86000000
   C     86.27000000   100.75000000    49.93000000
   N     85.16000000   101.58000000    49.42000000
   H     85.28000000    99.16000000    45.56000000
   H     88.18000000    98.98000000    46.22000000
   H     87.48000000    97.35000000    47.97000000
   H     85.96000000    97.17000000    46.98000000
   H     85.62000000    98.24000000    49.02000000
   H     85.09000000    99.25000000    47.70000000
   H     87.34000000   100.44000000    48.07000000
   H     87.66000000    99.28000000    49.35000000
   H     87.03000000   101.45000000    50.28000000
   H     85.93000000   100.17000000    50.78000000
   H     85.41000000   102.22000000    48.68000000
   H     84.58000000   100.94000000    48.90000000
   H     84.63000000   102.05000000    50.14000000
   N     89.09000000    97.03000000    44.99000000
   C     90.21000000    97.59000000    45.73000000
   C     90.86000000    98.81000000    45.11000000
   O     91.76000000    99.44000000    45.66000000
   C     91.15000000    96.42000000    46.02000000
   C     92.37000000    96.87000000    46.81000000
   O     93.42000000    97.09000000    46.18000000
   O     92.27000000    96.98000000    48.05000000
   H     89.31000000    96.37000000    44.25000000
   H     89.86000000    97.90000000    46.72000000
   H     91.53000000    96.06000000    45.06000000
   H     90.67000000    95.61000000    46.57000000
   N     90.59000000    99.16000000    43.85000000
   C     90.02000000    98.47000000    42.71000000
   C     90.08000000    99.38000000    41.49000000
   O     91.09000000   100.07000000    41.43000000
   H     91.26000000    99.89000000    43.63000000
   H     88.95000000    98.27000000    42.74000000
   H     90.51000000    97.51000000    42.52000000
   N     89.13000000    99.40000000    40.55000000
   C     87.74000000    98.99000000    40.59000000
   C     86.77000000    99.97000000    39.95000000
   O     86.90000000   100.39000000    38.80000000
   C     87.60000000    97.70000000    39.78000000
   C     88.42000000    96.61000000    40.47000000
   O     87.99000000    96.03000000    41.49000000
   O     89.42000000    96.15000000    39.89000000
   H     89.37000000    99.79000000    39.65000000
   H     87.42000000    98.82000000    41.61000000
   H     87.96000000    97.85000000    38.77000000
   H     86.55000000    97.43000000    39.72000000
   N     85.75000000   100.34000000    40.73000000
   C     84.66000000   101.20000000    40.30000000
   C     83.69000000   100.38000000    39.47000000
   O     82.48000000   100.34000000    39.68000000
   H     85.61000000    99.82000000    41.58000000
   H     85.03000000   102.03000000    39.71000000
   H     84.14000000   101.63000000    41.16000000
   N     84.19000000    99.68000000    38.45000000
   C     83.41000000    98.72000000    37.69000000
   C     83.09000000    97.43000000    38.44000000
   O     83.76000000    97.04000000    39.39000000
   C     84.07000000    98.44000000    36.35000000
   C     85.50000000    97.92000000    36.43000000
   O     83.95000000    99.58000000    35.53000000
   H     85.20000000    99.72000000    38.37000000
   H     82.43000000    99.18000000    37.56000000
   H     83.58000000    97.57000000    35.91000000
   H     84.24000000    99.45000000    34.63000000
   H     85.81000000    97.52000000    35.47000000
   H     86.31000000    98.65000000    36.54000000
   H     85.62000000    97.10000000    37.13000000
   N     81.97000000    96.80000000    38.09000000
   C     81.25000000    95.71000000    38.72000000
   C     80.78000000    94.69000000    37.70000000
   O     79.84000000    94.93000000    36.94000000
   C     80.26000000    96.18000000    39.78000000
   C     79.47000000    95.10000000    40.53000000
   C     79.32000000    97.25000000    39.24000000
   C     80.26000000    93.98000000    41.19000000
   H     81.50000000    97.28000000    37.34000000
   H     81.99000000    95.21000000    39.34000000
   H     80.75000000    96.77000000    40.55000000
   H     78.79000000    94.74000000    39.76000000
   H     78.88000000    95.55000000    41.32000000
   H     79.83000000    98.17000000    38.93000000
   H     78.80000000    96.90000000    38.35000000
   H     78.48000000    97.50000000    39.88000000
   H     81.15000000    94.34000000    41.72000000
   H     79.59000000    93.48000000    41.88000000
   H     80.42000000    93.25000000    40.40000000
   N     81.31000000    93.46000000    37.76000000
   C     80.96000000    92.32000000    36.94000000
   C     80.79000000    90.97000000    37.61000000
   O     80.27000000    90.12000000    36.89000000
   C     81.98000000    92.21000000    35.80000000
   C     83.42000000    91.85000000    36.15000000
   O     82.23000000    93.47000000    35.21000000
   H     82.13000000    93.31000000    38.33000000
   H     80.01000000    92.52000000    36.44000000
   H     81.69000000    91.50000000    35.03000000
   H     81.35000000    93.85000000    35.15000000
   H     83.46000000    90.83000000    36.55000000
   H     83.98000000    91.76000000    35.22000000
   H     83.84000000    92.59000000    36.83000000
   N     81.21000000    90.84000000    38.87000000
   C     80.96000000    89.65000000    39.67000000
   C     82.05000000    88.62000000    39.40000000
   O     82.72000000    88.46000000    38.39000000
   C     79.54000000    89.09000000    39.58000000
   C     78.62000000    90.21000000    40.05000000
   O     79.17000000    88.13000000    40.54000000
   H     81.56000000    91.70000000    39.26000000
   H     81.07000000    89.97000000    40.70000000
   H     79.30000000    88.79000000    38.56000000
   H     78.23000000    88.15000000    40.73000000
   H     78.99000000    90.78000000    40.90000000
   H     78.44000000    90.98000000    39.30000000
   H     77.67000000    89.84000000    40.45000000
   N     82.25000000    87.80000000    40.43000000
   C     83.14000000    86.65000000    40.43000000
   C     84.40000000    86.74000000    41.27000000
   O     85.26000000    85.89000000    41.04000000
   C     82.29000000    85.45000000    40.86000000
   C     81.83000000    84.61000000    39.67000000
   C     80.95000000    85.29000000    38.63000000
   C     80.56000000    84.29000000    37.55000000
   N     79.30000000    84.66000000    36.89000000
   H     81.53000000    87.88000000    41.14000000
   H     83.57000000    86.42000000    39.46000000
   H     81.44000000    85.81000000    41.44000000
   H     82.90000000    84.86000000    41.55000000
   H     81.32000000    83.75000000    40.12000000
   H     82.69000000    84.20000000    39.15000000
   H     81.49000000    86.21000000    38.37000000
   H     80.05000000    85.64000000    39.14000000
   H     80.32000000    83.33000000    38.01000000
   H     81.36000000    84.25000000    36.80000000
   H     79.08000000    84.03000000    36.13000000
   H     78.64000000    84.58000000    37.65000000
   H     79.32000000    85.59000000    36.51000000
   N     84.55000000    87.50000000    42.36000000
   C     83.79000000    88.53000000    43.04000000
   C     82.39000000    88.08000000    43.45000000
   O     81.44000000    88.85000000    43.33000000
   C     83.97000000    89.94000000    42.48000000
   C     83.48000000    91.04000000    43.40000000
   C     84.28000000    92.32000000    43.16000000
   O     84.12000000    93.11000000    42.21000000
   O     85.27000000    92.46000000    43.92000000
   H     85.49000000    87.36000000    42.70000000
   H     84.32000000    88.62000000    43.99000000
   H     83.46000000    89.95000000    41.52000000
   H     85.04000000    90.04000000    42.31000000
   H     83.50000000    90.69000000    44.43000000
   H     82.40000000    91.22000000    43.30000000
   N     82.08000000    86.84000000    43.83000000
   C     80.77000000    86.38000000    44.24000000
   H     80.04700000    86.59800000    43.45400000
   H     80.80100000    85.30500000    44.41600000
   H     80.47500000    86.89100000    45.15700000
   H     82.83000000    86.16000000    43.75000000
  Ca     86.08000000    94.84000000    42.68000000
   O     85.52000000    94.95000000    39.96000000
   H     85.55000000    94.46000000    39.14000000
   H     84.97000000    95.71000000    39.76000000
   O     85.27000000    94.95000000    45.11000000
   H     85.32000000    94.31000000    45.82000000
   H     85.03000000    95.77000000    45.55000000
   O     88.55000000    94.40000000    43.78000000
   H     89.13000000    94.51000000    43.03000000
   H     89.08000000    93.94000000    44.43000000
   O     84.17000000    96.54000000    41.96000000
   H     84.04000000    96.80000000    41.05000000
   H     83.98000000    97.33000000    42.46000000
   O     87.30000000    92.69000000    41.05000000
   H     88.01000000    92.04000000    41.06000000
   H     86.66000000    92.34000000    40.43000000

Ca 1.00



