%chk=loop1.apoCaM-CA-Ng.Init295.run18.water5.chk
%nprocshared=20
%mem=10GB
%nosave
#b3lyp/svp scf=(tight,noincore,xqc) Test 
#IOP(5/87=12) Density=Current Pop=(MK,readradii) iop(6/33=2) iop(6/42=6)

loop1.apoCaM-CA-Ng.Init295.run18.water5 

   0  1 
   C     61.83000000    54.11000000    41.29000000
   C     60.92000000    53.03000000    40.74000000
   O     59.97000000    52.54000000    41.35000000
   H     62.73900000    54.15900000    40.69000000
   H     61.31800000    55.07100000    41.25200000
   H     62.09000000    53.87600000    42.32200000
   N     61.03000000    52.82000000    39.43000000
   C     60.35000000    52.03000000    38.41000000
   C     58.84000000    52.18000000    38.41000000
   O     58.22000000    51.24000000    38.91000000
   C     60.89000000    50.61000000    38.53000000
   C     60.27000000    49.70000000    37.48000000
   O     60.11000000    48.52000000    37.84000000
   O     60.22000000    50.00000000    36.27000000
   H     61.71000000    53.43000000    39.00000000
   H     60.64000000    52.38000000    37.42000000
   H     60.70000000    50.20000000    39.53000000
   H     61.96000000    50.50000000    38.34000000
   N     58.34000000    53.30000000    37.87000000
   C     56.95000000    53.66000000    38.03000000
   C     56.25000000    54.02000000    36.72000000
   O     55.02000000    54.10000000    36.76000000
   C     56.86000000    54.78000000    39.06000000
   C     57.15000000    54.33000000    40.49000000
   C     56.73000000    55.37000000    41.52000000
   C     56.68000000    54.74000000    42.91000000
   N     56.52000000    55.83000000    43.89000000
   H     59.00000000    53.91000000    37.40000000
   H     56.36000000    52.81000000    38.36000000
   H     55.87000000    55.25000000    39.08000000
   H     57.64000000    55.51000000    38.83000000
   H     58.22000000    54.16000000    40.61000000
   H     56.61000000    53.40000000    40.68000000
   H     55.76000000    55.81000000    41.32000000
   H     57.42000000    56.21000000    41.43000000
   H     57.52000000    54.09000000    43.14000000
   H     55.80000000    54.10000000    43.00000000
   H     56.62000000    55.49000000    44.84000000
   H     57.28000000    56.46000000    43.70000000
   H     55.63000000    56.31000000    43.89000000
   N     56.98000000    54.23000000    35.63000000
   C     56.41000000    54.59000000    34.34000000
   C     55.72000000    53.39000000    33.70000000
   O     54.65000000    53.53000000    33.12000000
   C     57.48000000    55.19000000    33.44000000
   C     56.94000000    55.25000000    32.02000000
   O     57.15000000    54.29000000    31.25000000
   O     56.30000000    56.23000000    31.59000000
   H     57.95000000    53.95000000    35.67000000
   H     55.66000000    55.37000000    34.45000000
   H     58.37000000    54.57000000    33.48000000
   H     57.63000000    56.21000000    33.80000000
   N     56.28000000    52.18000000    33.87000000
   C     55.80000000    51.02000000    33.14000000
   C     56.79000000    50.50000000    32.11000000
   O     57.11000000    49.31000000    32.16000000
   H     56.97000000    52.04000000    34.59000000
   H     54.86000000    51.26000000    32.64000000
   H     55.67000000    50.22000000    33.86000000
   N     57.33000000    51.40000000    31.29000000
   C     58.41000000    51.06000000    30.38000000
   C     59.75000000    51.72000000    30.69000000
   O     60.79000000    51.07000000    30.58000000
   C     58.01000000    51.44000000    28.95000000
   C     57.43000000    52.83000000    28.74000000
   O     58.28000000    53.68000000    28.38000000
   O     56.22000000    53.12000000    28.69000000
   H     57.04000000    52.36000000    31.38000000
   H     58.58000000    49.98000000    30.42000000
   H     57.30000000    50.65000000    28.71000000
   H     58.86000000    51.30000000    28.28000000
   N     59.75000000    52.97000000    31.14000000
   C     60.92000000    53.77000000    31.44000000
   C     61.29000000    53.67000000    32.92000000
   O     61.21000000    52.61000000    33.52000000
   H     58.84000000    53.33000000    31.38000000
   H     60.75000000    54.82000000    31.19000000
   H     61.73000000    53.33000000    30.86000000
   N     61.67000000    54.83000000    33.47000000
   C     62.25000000    55.11000000    34.76000000
   C     63.42000000    56.08000000    34.77000000
   O     63.60000000    56.87000000    33.84000000
   C     61.23000000    55.52000000    35.83000000
   C     60.58000000    56.88000000    35.58000000
   O     60.33000000    54.44000000    35.82000000
   H     61.66000000    55.63000000    32.85000000
   H     62.65000000    54.16000000    35.10000000
   H     61.78000000    55.49000000    36.77000000
   H     60.56000000    53.79000000    35.14000000
   H     61.30000000    57.68000000    35.42000000
   H     60.01000000    56.83000000    34.65000000
   H     59.98000000    57.24000000    36.42000000
   N     64.37000000    55.95000000    35.70000000
   C     65.35000000    56.98000000    35.96000000
   C     66.42000000    56.99000000    34.89000000
   O     67.14000000    57.99000000    34.84000000
   C     65.85000000    56.90000000    37.40000000
   C     66.79000000    58.02000000    37.84000000
   C     66.61000000    55.59000000    37.57000000
   C     66.27000000    59.44000000    37.64000000
   H     64.22000000    55.17000000    36.32000000
   H     64.83000000    57.92000000    35.76000000
   H     64.97000000    56.89000000    38.05000000
   H     67.76000000    57.98000000    37.35000000
   H     67.10000000    57.87000000    38.88000000
   H     66.83000000    55.39000000    38.62000000
   H     65.97000000    54.79000000    37.21000000
   H     67.53000000    55.51000000    36.99000000
   H     66.49000000    59.75000000    36.62000000
   H     65.23000000    59.63000000    37.92000000
   H     66.81000000    59.99000000    38.41000000
   N     66.68000000    55.91000000    34.15000000
   C     67.61000000    55.76000000    33.05000000
   C     68.39000000    54.46000000    33.19000000
   O     67.83000000    53.47000000    33.67000000
   C     66.88000000    55.79000000    31.71000000
   C     66.24000000    57.10000000    31.27000000
   O     67.77000000    55.64000000    30.63000000
   H     66.04000000    55.13000000    34.19000000
   H     68.27000000    56.64000000    33.01000000
   H     66.14000000    55.00000000    31.63000000
   H     67.26000000    55.26000000    29.91000000
   H     65.85000000    56.95000000    30.27000000
   H     65.38000000    57.35000000    31.89000000
   H     66.89000000    57.96000000    31.43000000
   N     69.66000000    54.48000000    32.79000000
   C     70.41000000    53.26000000    32.62000000
   C     71.81000000    53.19000000    33.23000000
   O     72.31000000    52.21000000    33.78000000
   C     70.40000000    53.00000000    31.12000000
   C     70.98000000    51.67000000    30.65000000
   O     71.16000000    53.98000000    30.45000000
   H     70.02000000    55.35000000    32.41000000
   H     69.85000000    52.38000000    32.96000000
   H     69.36000000    53.05000000    30.79000000
   H     70.98000000    53.79000000    29.53000000
   H     70.98000000    51.70000000    29.56000000
   H     71.99000000    51.47000000    31.02000000
   H     70.34000000    50.88000000    31.04000000
   N     72.55000000    54.29000000    33.08000000
   C     73.96000000    54.32000000    33.45000000
   C     74.23000000    55.56000000    34.29000000
   O     73.62000000    56.60000000    34.08000000
   C     74.87000000    54.35000000    32.23000000
   C     74.64000000    53.31000000    31.13000000
   C     75.63000000    53.45000000    29.98000000
   C     75.46000000    52.21000000    29.11000000
   N     76.39000000    52.20000000    27.97000000
   H     72.18000000    55.06000000    32.54000000
   H     74.24000000    53.46000000    34.06000000
   H     75.87000000    54.21000000    32.64000000
   H     74.86000000    55.37000000    31.84000000
   H     73.62000000    53.39000000    30.78000000
   H     74.68000000    52.31000000    31.57000000
   H     76.64000000    53.74000000    30.26000000
   H     75.31000000    54.23000000    29.29000000
   H     74.41000000    52.25000000    28.79000000
   H     75.57000000    51.37000000    29.80000000
   H     77.34000000    52.41000000    28.26000000
   H     76.48000000    51.26000000    27.60000000
   H     76.06000000    52.85000000    27.28000000
   N     75.22000000    55.36000000    35.16000000
   C     75.66000000    56.42000000    36.05000000
   C     74.82000000    56.55000000    37.30000000
   O     74.67000000    57.69000000    37.75000000
   C     77.17000000    56.37000000    36.32000000
   C     77.70000000    57.57000000    37.09000000
   C     79.21000000    57.77000000    37.05000000
   O     79.70000000    58.80000000    37.54000000
   O     80.01000000    56.92000000    36.58000000
   H     75.53000000    54.41000000    35.26000000
   H     75.49000000    57.36000000    35.53000000
   H     77.76000000    56.36000000    35.41000000
   H     77.29000000    55.46000000    36.90000000
   H     77.39000000    57.45000000    38.13000000
   H     77.24000000    58.47000000    36.69000000
   N     74.11000000    55.56000000    37.86000000
   C     73.86000000    54.15000000    37.63000000
   H     72.94400000    54.03400000    37.05100000
   H     74.69500000    53.71800000    37.07900000
   H     73.75200000    53.63900000    38.58700000
   H     73.64000000    55.80000000    38.72000000
  Ca     56.66000000    55.68000000    28.90000000
   O     58.60000000    56.44000000    27.12000000
   H     59.39000000    56.19000000    27.60000000
   H     58.93000000    56.88000000    26.34000000
   O     55.91000000    55.76000000    26.49000000
   H     55.59000000    56.51000000    25.99000000
   H     56.18000000    55.13000000    25.82000000
   O     55.66000000    58.12000000    29.10000000
   H     55.51000000    58.63000000    28.30000000
   H     55.09000000    58.53000000    29.76000000
   O     53.96000000    55.75000000    29.01000000
   H     53.22000000    56.36000000    29.03000000
   H     53.73000000    55.07000000    29.65000000
   O     58.53000000    57.30000000    29.99000000
   H     58.72000000    57.74000000    30.82000000
   H     59.28000000    57.48000000    29.44000000

Ca 1.00



