%chk=loop1.holoCaM-CaMKII.run37.water2.chk
%nprocshared=20
%mem=10GB
%nosave
#b3lyp/svp scf=(tight,noincore,xqc) Test 
#IOP(5/87=12) Density=Current Pop=(MK,readradii) iop(6/33=2) iop(6/42=6)

loop1.holoCaM-CaMKII.run37.water2 

   0  1 
   C     85.89700000    50.60000000     2.46300000
   C     85.23700000    49.73000000     1.40300000
   O     84.06700000    49.36000000     1.49300000
   H     86.80500000    51.04300000     2.05500000
   H     85.21100000    51.39200000     2.76300000
   H     86.14900000    49.98900000     3.33000000
   N     86.02700000    49.35000000     0.39300000
   C     85.64700000    48.50000000    -0.71700000
   C     85.56700000    47.05000000    -0.26700000
   O     86.53700000    46.28000000    -0.28700000
   C     86.73700000    48.81000000    -1.73700000
   C     86.55700000    48.06000000    -3.04700000
   O     87.39700000    48.33000000    -3.92700000
   O     85.53700000    47.35000000    -3.15700000
   H     86.89700000    49.86000000     0.41300000
   H     84.70700000    48.75000000    -1.20700000
   H     87.69700000    48.43000000    -1.37700000
   H     86.82700000    49.87000000    -1.99700000
   N     84.35700000    46.67000000     0.12300000
   C     84.05700000    45.40000000     0.75300000
   C     84.52700000    44.21000000    -0.06700000
   O     84.78700000    43.15000000     0.51300000
   C     82.59700000    45.40000000     1.18300000
   C     82.08700000    46.38000000     2.23300000
   C     82.92700000    46.22000000     3.49300000
   C     84.16700000    47.10000000     3.56300000
   N     85.13700000    46.50000000     4.49300000
   H     83.69700000    47.43000000     0.25300000
   H     84.67700000    45.22000000     1.63300000
   H     82.31700000    44.40000000     1.53300000
   H     82.00700000    45.48000000     0.27300000
   H     81.03700000    46.22000000     2.48300000
   H     82.19700000    47.42000000     1.91300000
   H     83.06700000    45.15000000     3.67300000
   H     82.33700000    46.47000000     4.37300000
   H     83.88700000    48.11000000     3.87300000
   H     84.62700000    47.23000000     2.58300000
   H     85.40700000    45.60000000     4.12300000
   H     85.98700000    47.06000000     4.48300000
   H     84.69700000    46.63000000     5.39300000
   N     84.58700000    44.18000000    -1.40700000
   C     85.07700000    43.11000000    -2.24700000
   C     86.32700000    43.39000000    -3.06700000
   O     86.93700000    42.45000000    -3.54700000
   C     83.96700000    42.76000000    -3.23700000
   C     83.30700000    43.95000000    -3.93700000
   O     83.87700000    45.05000000    -4.07700000
   O     82.20700000    43.68000000    -4.44700000
   H     84.27700000    45.01000000    -1.89700000
   H     85.33700000    42.28000000    -1.58700000
   H     83.21700000    42.18000000    -2.69700000
   H     84.43700000    42.16000000    -4.00700000
   N     86.65700000    44.66000000    -3.33700000
   C     87.95700000    44.98000000    -3.89700000
   C     87.82700000    45.01000000    -5.41700000
   O     88.12700000    44.06000000    -6.12700000
   H     85.91700000    45.34000000    -3.21700000
   H     88.70700000    44.23000000    -3.63700000
   H     88.21700000    45.98000000    -3.55700000
   N     87.38700000    46.17000000    -5.92700000
   C     87.21700000    46.49000000    -7.32700000
   C     87.48700000    47.94000000    -7.69700000
   O     87.37700000    48.37000000    -8.84700000
   C     85.79700000    46.20000000    -7.80700000
   C     84.72700000    46.95000000    -7.03700000
   O     84.95700000    48.08000000    -6.55700000
   O     83.63700000    46.33000000    -6.96700000
   H     87.23700000    46.89000000    -5.23700000
   H     87.89700000    45.95000000    -7.98700000
   H     85.63700000    45.13000000    -7.65700000
   H     85.74700000    46.50000000    -8.84700000
   N     87.95700000    48.70000000    -6.70700000
   C     88.30700000    50.10000000    -6.85700000
   C     87.14700000    51.07000000    -7.03700000
   O     87.38700000    52.23000000    -7.36700000
   H     87.75700000    48.46000000    -5.74700000
   H     89.11700000    50.23000000    -7.57700000
   H     88.83700000    50.36000000    -5.94700000
   N     85.89700000    50.64000000    -6.79700000
   C     84.74700000    51.43000000    -6.42700000
   C     84.15700000    51.12000000    -5.05700000
   O     84.38700000    50.08000000    -4.43700000
   C     83.69700000    51.48000000    -7.52700000
   C     83.97700000    52.60000000    -8.53700000
   O     83.54700000    50.18000000    -8.05700000
   H     85.68700000    49.66000000    -6.68700000
   H     85.15700000    52.44000000    -6.35700000
   H     82.77700000    51.64000000    -6.97700000
   H     84.32700000    49.72000000    -7.72700000
   H     83.96700000    53.55000000    -8.01700000
   H     84.96700000    52.27000000    -8.83700000
   H     83.23700000    52.63000000    -9.33700000
   N     83.33700000    52.03000000    -4.53700000
   C     82.61700000    51.95000000    -3.27700000
   C     81.14700000    52.34000000    -3.42700000
   O     80.87700000    53.47000000    -3.80700000
   C     83.17700000    52.78000000    -2.13700000
   C     84.61700000    52.39000000    -1.80700000
   C     82.31700000    52.52000000    -0.90700000
   C     85.46700000    53.55000000    -1.28700000
   H     83.18700000    52.83000000    -5.14700000
   H     82.57700000    50.92000000    -2.91700000
   H     83.07700000    53.84000000    -2.36700000
   H     85.15700000    52.10000000    -2.70700000
   H     84.63700000    51.53000000    -1.12700000
   H     82.85700000    52.65000000     0.03300000
   H     81.38700000    53.08000000    -1.00700000
   H     82.09700000    51.45000000    -0.87700000
   H     84.95700000    54.01000000    -0.43700000
   H     86.50700000    53.22000000    -1.25700000
   H     85.49700000    54.24000000    -2.12700000
   N     80.20700000    51.51000000    -2.97700000
   C     78.78700000    51.76000000    -2.89700000
   C     78.23700000    52.14000000    -1.52700000
   O     78.91700000    51.94000000    -0.52700000
   C     77.82700000    50.66000000    -3.34700000
   C     78.40700000    49.86000000    -4.50700000
   O     77.60700000    49.72000000    -2.31700000
   H     80.46700000    50.66000000    -2.49700000
   H     78.64700000    52.58000000    -3.60700000
   H     76.89700000    51.06000000    -3.73700000
   H     77.09700000    49.05000000    -2.79700000
   H     77.62700000    49.33000000    -5.05700000
   H     78.83700000    50.55000000    -5.22700000
   H     79.16700000    49.14000000    -4.18700000
   N     77.07700000    52.78000000    -1.55700000
   C     76.29700000    53.01000000    -0.34700000
   C     76.28700000    51.87000000     0.66300000
   O     76.40700000    52.17000000     1.85300000
   C     74.84700000    53.26000000    -0.76700000
   C     74.76700000    54.60000000    -1.49700000
   O     74.32700000    52.33000000    -1.67700000
   H     76.75700000    53.14000000    -2.44700000
   H     76.64700000    53.83000000     0.28300000
   H     74.25700000    53.30000000     0.14300000
   H     73.36700000    52.28000000    -1.62700000
   H     75.18700000    54.43000000    -2.48700000
   H     73.70700000    54.84000000    -1.56700000
   H     75.25700000    55.39000000    -0.94700000
   N     76.00700000    50.64000000     0.25300000
   C     75.88700000    49.46000000     1.09300000
   C     77.24700000    49.11000000     1.69300000
   O     77.28700000    49.01000000     2.91300000
   C     75.21700000    48.31000000     0.34300000
   C     73.81700000    48.69000000    -0.14700000
   C     73.05700000    47.54000000    -0.80700000
   C     71.69700000    47.91000000    -1.38700000
   N     70.63700000    47.87000000    -0.37700000
   H     75.98700000    50.53000000    -0.74700000
   H     75.26700000    49.69000000     1.95300000
   H     75.25700000    47.45000000     1.00300000
   H     75.85700000    48.07000000    -0.50700000
   H     74.02700000    49.42000000    -0.92700000
   H     73.21700000    49.14000000     0.64300000
   H     72.97700000    46.64000000    -0.18700000
   H     73.62700000    47.30000000    -1.69700000
   H     71.56700000    47.15000000    -2.15700000
   H     71.74700000    48.92000000    -1.80700000
   H     70.63700000    47.01000000     0.16300000
   H     70.59700000    48.64000000     0.27300000
   H     69.73700000    47.91000000    -0.82700000
   N     78.27700000    49.02000000     0.85300000
   C     79.63700000    48.85000000     1.32300000
   C     80.08700000    49.90000000     2.33300000
   O     80.63700000    49.54000000     3.37300000
   C     80.61700000    48.96000000     0.15300000
   C     80.41700000    47.87000000    -0.89700000
   C     81.45700000    47.83000000    -1.99700000
   O     81.48700000    48.69000000    -2.89700000
   O     82.20700000    46.84000000    -2.14700000
   H     78.15700000    49.18000000    -0.13700000
   H     79.73700000    47.87000000     1.78300000
   H     81.65700000    49.09000000     0.46300000
   H     80.39700000    49.91000000    -0.34700000
   H     79.44700000    48.00000000    -1.37700000
   H     80.48700000    46.90000000    -0.41700000
   N     79.88700000    51.19000000     2.06300000
   C     80.23700000    52.23000000     3.00300000
   H     81.10600000    52.77400000     2.63500000
   H     79.39900000    52.91800000     3.11400000
   H     80.47100000    51.78300000     3.96900000
   H     79.58700000    51.43000000     1.13300000
  Ca     83.24000000    47.54000000    -4.50700000
   O     81.06000000    45.97000000    -4.98700000
   H     81.34000000    45.07000000    -4.82700000
   H     80.44000000    45.90000000    -5.71700000
   O     81.87000000    48.80000000    -6.19700000
   H     81.03000000    49.25000000    -6.15700000
   H     82.23000000    49.03000000    -7.05700000

Ca 1.00



