%chk=loop3.holoCaM.run90.water2.chk
%nprocshared=20
%mem=10GB
%nosave
#b3lyp/svp scf=(tight,noincore,xqc) Test 
#IOP(5/87=12) Density=Current Pop=(MK,readradii) iop(6/33=2) iop(6/42=6)

loop3.holoCaM.run90.water2 

   0  1 
   C     51.58000000    60.41000000    29.47000000
   C     52.68000000    59.36000000    29.49000000
   O     52.34000000    58.21000000    29.26000000
   H     50.70300000    60.02700000    29.99300000
   H     51.93100000    61.31500000    29.96600000
   H     51.31500000    60.64000000    28.43800000
   N     53.93000000    59.70000000    29.82000000
   C     54.94000000    58.76000000    30.27000000
   C     54.63000000    58.44000000    31.72000000
   O     54.39000000    59.37000000    32.50000000
   C     56.30000000    59.42000000    30.02000000
   C     57.52000000    58.62000000    30.46000000
   O     57.40000000    57.42000000    30.78000000
   O     58.59000000    59.25000000    30.43000000
   H     54.19000000    60.67000000    29.84000000
   H     54.78000000    57.87000000    29.67000000
   H     56.27000000    60.35000000    30.60000000
   H     56.30000000    59.52000000    28.94000000
   N     54.47000000    57.17000000    32.11000000
   C     54.06000000    56.67000000    33.41000000
   C     55.24000000    56.31000000    34.29000000
   O     54.99000000    55.87000000    35.41000000
   C     53.29000000    55.38000000    33.13000000
   C     51.99000000    55.48000000    32.34000000
   C     51.05000000    56.42000000    33.09000000
   C     49.91000000    56.96000000    32.22000000
   N     49.36000000    58.16000000    32.86000000
   H     54.47000000    56.59000000    31.29000000
   H     53.55000000    57.45000000    33.98000000
   H     52.97000000    54.99000000    34.10000000
   H     53.96000000    54.58000000    32.86000000
   H     51.50000000    54.52000000    32.17000000
   H     52.22000000    55.92000000    31.36000000
   H     51.62000000    57.34000000    33.25000000
   H     50.73000000    55.95000000    34.02000000
   H     49.20000000    56.17000000    31.97000000
   H     50.30000000    57.26000000    31.25000000
   H     50.07000000    58.88000000    32.80000000
   H     48.54000000    58.60000000    32.48000000
   H     49.21000000    57.98000000    33.84000000
   N     56.50000000    56.59000000    33.95000000
   C     57.64000000    56.26000000    34.79000000
   C     58.69000000    57.35000000    34.65000000
   O     59.39000000    57.73000000    35.59000000
   C     58.15000000    54.91000000    34.31000000
   C     58.20000000    54.83000000    32.79000000
   O     59.10000000    55.45000000    32.19000000
   O     57.28000000    54.22000000    32.20000000
   H     56.59000000    57.01000000    33.04000000
   H     57.54000000    56.26000000    35.87000000
   H     57.42000000    54.22000000    34.74000000
   H     59.10000000    54.62000000    34.77000000
   N     58.83000000    58.05000000    33.52000000
   C     59.71000000    59.17000000    33.25000000
   C     60.99000000    58.83000000    32.51000000
   O     61.89000000    59.67000000    32.55000000
   H     58.28000000    57.71000000    32.75000000
   H     59.99000000    59.69000000    34.17000000
   H     59.19000000    59.89000000    32.62000000
   N     61.09000000    57.66000000    31.87000000
   C     62.25000000    57.29000000    31.08000000
   C     62.35000000    57.98000000    29.73000000
   O     63.31000000    57.68000000    29.03000000
   C     62.22000000    55.78000000    30.86000000
   C     61.23000000    55.32000000    29.79000000
   N     61.61000000    54.31000000    29.01000000
   O     60.27000000    55.96000000    29.36000000
   H     60.36000000    56.99000000    32.06000000
   H     63.20000000    57.45000000    31.58000000
   H     61.98000000    55.27000000    31.79000000
   H     63.16000000    55.41000000    30.45000000
   H     62.52000000    53.89000000    29.16000000
   H     61.06000000    54.04000000    28.21000000
   N     61.46000000    58.87000000    29.27000000
   C     61.37000000    59.65000000    28.05000000
   C     60.70000000    58.97000000    26.86000000
   O     60.87000000    59.49000000    25.75000000
   H     60.61000000    58.89000000    29.80000000
   H     62.40000000    59.91000000    27.80000000
   H     60.82000000    60.57000000    28.26000000
   N     60.12000000    57.79000000    27.09000000
   C     59.41000000    57.00000000    26.11000000
   C     58.02000000    56.67000000    26.64000000
   O     57.83000000    56.61000000    27.85000000
   C     60.27000000    55.80000000    25.70000000
   C     61.66000000    56.13000000    25.20000000
   C     62.73000000    56.15000000    26.10000000
   C     61.86000000    56.51000000    23.87000000
   C     64.04000000    56.43000000    25.67000000
   C     63.15000000    56.83000000    23.41000000
   C     64.23000000    56.78000000    24.32000000
   O     65.49000000    57.11000000    23.94000000
   H     60.08000000    57.43000000    28.03000000
   H     59.28000000    57.62000000    25.23000000
   H     59.81000000    55.19000000    24.93000000
   H     60.30000000    55.06000000    26.50000000
   H     62.50000000    55.87000000    27.12000000
   H     61.06000000    56.48000000    23.14000000
   H     64.90000000    56.27000000    26.31000000
   H     63.28000000    57.12000000    22.38000000
   H     65.64000000    57.11000000    22.99000000
   N     57.12000000    56.29000000    25.73000000
   C     55.80000000    55.75000000    25.96000000
   C     55.63000000    54.54000000    25.05000000
   O     55.99000000    54.64000000    23.88000000
   C     54.73000000    56.81000000    25.71000000
   C     54.79000000    58.00000000    26.67000000
   C     53.39000000    56.10000000    25.89000000
   C     54.00000000    59.19000000    26.14000000
   H     57.52000000    56.34000000    24.80000000
   H     55.80000000    55.39000000    26.99000000
   H     54.86000000    57.10000000    24.66000000
   H     55.79000000    58.31000000    26.95000000
   H     54.29000000    57.69000000    27.59000000
   H     53.28000000    55.26000000    25.22000000
   H     53.27000000    55.78000000    26.93000000
   H     52.52000000    56.75000000    25.80000000
   H     54.29000000    59.41000000    25.11000000
   H     52.93000000    58.97000000    26.12000000
   H     54.17000000    60.11000000    26.69000000
   N     55.17000000    53.48000000    25.71000000
   C     54.87000000    52.21000000    25.08000000
   C     53.37000000    52.09000000    24.86000000
   O     52.61000000    52.84000000    25.46000000
   C     55.45000000    51.03000000    25.86000000
   O     54.79000000    50.89000000    27.10000000
   H     54.97000000    53.58000000    26.70000000
   H     55.33000000    52.24000000    24.09000000
   H     56.52000000    51.23000000    25.91000000
   H     55.25000000    50.10000000    25.33000000
   H     55.39000000    50.57000000    27.78000000
   N     52.98000000    51.15000000    24.00000000
   C     51.60000000    50.75000000    23.81000000
   C     50.85000000    50.25000000    25.04000000
   O     49.65000000    50.49000000    25.07000000
   C     51.51000000    49.83000000    22.60000000
   H     53.65000000    50.78000000    23.34000000
   H     51.06000000    51.63000000    23.45000000
   H     50.47000000    49.52000000    22.55000000
   H     51.75000000    50.45000000    21.74000000
   H     52.19000000    48.99000000    22.74000000
   N     51.44000000    49.67000000    26.09000000
   C     50.72000000    49.35000000    27.31000000
   C     50.69000000    50.54000000    28.26000000
   O     49.67000000    50.70000000    28.91000000
   C     51.29000000    48.14000000    28.03000000
   H     52.30000000    49.18000000    25.89000000
   H     49.67000000    49.15000000    27.08000000
   H     50.70000000    48.01000000    28.94000000
   H     51.33000000    47.31000000    27.33000000
   H     52.29000000    48.33000000    28.42000000
   N     51.74000000    51.37000000    28.20000000
   C     51.72000000    52.69000000    28.80000000
   C     50.56000000    53.46000000    28.19000000
   O     49.80000000    54.12000000    28.90000000
   C     53.02000000    53.46000000    28.55000000
   C     53.86000000    53.20000000    29.80000000
   C     55.16000000    53.94000000    29.53000000
   O     55.33000000    55.10000000    29.95000000
   O     56.07000000    53.38000000    28.89000000
   H     52.54000000    51.11000000    27.63000000
   H     51.49000000    52.53000000    29.85000000
   H     52.80000000    54.53000000    28.57000000
   H     53.52000000    53.06000000    27.67000000
   H     53.99000000    52.13000000    29.97000000
   H     53.36000000    53.63000000    30.67000000
   N     50.37000000    53.35000000    26.88000000
   C     49.32000000    54.01000000    26.13000000
   H     48.47300000    54.20600000    26.78700000
   H     49.69500000    54.95200000    25.73100000
   H     49.00100000    53.36800000    25.30900000
   H     51.09000000    52.83000000    26.39000000
  Ca     57.87000000    55.07000000    29.87000000
   O     58.53000000    53.55000000    27.73000000
   H     58.84000000    53.46000000    26.84000000
   H     57.80000000    52.93000000    27.80000000
   O     59.47000000    52.93000000    30.58000000
   H     59.78000000    52.98000000    31.48000000
   H     59.51000000    52.00000000    30.36000000

Ca 1.00



