%chk=loop4.holoCaM-CaMKII.run82.water2.chk
%nprocshared=20
%mem=10GB
%nosave
#b3lyp/svp scf=(tight,noincore,xqc) Test 
#IOP(5/87=12) Density=Current Pop=(MK,readradii) iop(6/33=2) iop(6/42=6)

loop4.holoCaM-CaMKII.run82.water2 

   -3  1 
   C     34.89000000    48.37000000   102.21600000
   C     33.78000000    47.33000000   102.26600000
   O     32.77000000    47.63000000   101.64600000
   H     35.76600000    47.94300000   101.72700000
   H     34.54900000    49.23900000   101.65400000
   H     35.15200000    48.67200000   103.23000000
   N     33.85000000    46.27000000   103.07600000
   C     32.82000000    45.25000000   103.20600000
   C     31.85000000    45.44000000   104.36600000
   O     32.31000000    45.72000000   105.46600000
   C     33.44000000    43.87000000   103.37600000
   C     32.59000000    42.61000000   103.43600000
   O     33.07000000    41.54000000   103.86600000
   O     31.42000000    42.65000000   102.98600000
   H     34.64000000    46.12000000   103.68600000
   H     32.28000000    45.32000000   102.26600000
   H     34.00000000    43.94000000   104.31600000
   H     34.13000000    43.72000000   102.54600000
   N     30.54000000    45.33000000   104.15600000
   C     29.45000000    45.69000000   105.04600000
   C     28.72000000    44.46000000   105.57600000
   O     28.43000000    44.35000000   106.76600000
   C     28.64000000    46.72000000   104.27600000
   C     29.50000000    47.96000000   104.08600000
   C     27.30000000    47.04000000   104.92600000
   C     28.72000000    49.14000000   103.51600000
   H     30.24000000    45.00000000   103.25600000
   H     29.90000000    46.18000000   105.91600000
   H     28.46000000    46.26000000   103.30600000
   H     30.41000000    47.89000000   103.48600000
   H     29.78000000    48.18000000   105.12600000
   H     26.75000000    47.73000000   104.28600000
   H     26.63000000    46.20000000   105.12600000
   H     27.44000000    47.61000000   105.84600000
   H     28.00000000    49.59000000   104.20600000
   H     29.45000000    49.95000000   103.43600000
   H     28.30000000    48.77000000   102.58600000
   N     28.34000000    43.50000000   104.73600000
   C     27.60000000    42.30000000   105.06600000
   C     28.46000000    41.16000000   105.59600000
   O     27.90000000    40.29000000   106.25600000
   C     26.77000000    41.86000000   103.85600000
   C     27.54000000    41.77000000   102.54600000
   O     28.49000000    40.96000000   102.49600000
   O     27.48000000    42.70000000   101.71600000
   H     28.66000000    43.64000000   103.78600000
   H     26.81000000    42.57000000   105.76600000
   H     25.90000000    42.52000000   103.77600000
   H     26.40000000    40.88000000   104.13600000
   N     29.78000000    41.24000000   105.36600000
   C     30.80000000    40.44000000   105.99600000
   C     31.28000000    39.20000000   105.26600000
   O     31.81000000    38.29000000   105.89600000
   H     30.02000000    41.91000000   104.64600000
   H     30.51000000    40.30000000   107.04600000
   H     31.66000000    41.11000000   106.05600000
   N     31.16000000    39.04000000   103.94600000
   C     31.58000000    37.86000000   103.21600000
   C     33.06000000    37.86000000   102.86600000
   O     33.64000000    36.86000000   102.44600000
   C     30.68000000    37.58000000   102.01600000
   C     30.77000000    38.68000000   100.96600000
   O     31.15000000    39.85000000   101.21600000
   O     30.36000000    38.44000000    99.80600000
   H     30.55000000    39.67000000   103.43600000
   H     31.44000000    37.03000000   103.91600000
   H     29.69000000    37.40000000   102.43600000
   H     30.93000000    36.65000000   101.50600000
   N     33.74000000    38.99000000   103.08600000
   C     35.16000000    39.20000000   102.92600000
   C     35.36000000    39.66000000   101.48600000
   O     36.49000000    39.75000000   100.98600000
   H     33.28000000    39.74000000   103.57600000
   H     35.66000000    38.24000000   102.97600000
   H     35.49000000    39.99000000   103.60600000
   N     34.33000000    40.11000000   100.77600000
   C     34.50000000    40.60000000    99.41600000
   C     33.73000000    41.90000000    99.22600000
   O     32.63000000    42.00000000    99.75600000
   C     33.99000000    39.55000000    98.43600000
   C     34.79000000    38.25000000    98.51600000
   C     34.71000000    37.42000000    97.24600000
   N     33.69000000    36.57000000    97.12600000
   O     35.56000000    37.56000000    96.37600000
   H     33.38000000    39.90000000   101.03600000
   H     35.54000000    40.81000000    99.17600000
   H     34.16000000    40.01000000    97.45600000
   H     32.92000000    39.40000000    98.50600000
   H     34.53000000    37.62000000    99.36600000
   H     35.86000000    38.49000000    98.52600000
   H     32.95000000    36.56000000    97.81600000
   H     33.60000000    36.09000000    96.24600000
   N     34.19000000    42.80000000    98.35600000
   C     33.50000000    44.01000000    97.96600000
   C     32.71000000    43.83000000    96.67600000
   O     33.22000000    43.40000000    95.65600000
   C     34.57000000    45.07000000    97.72600000
   C     33.97000000    46.37000000    97.19600000
   C     35.52000000    45.34000000    98.89600000
   H     35.13000000    42.70000000    97.99600000
   H     32.87000000    44.25000000    98.82600000
   H     35.25000000    44.56000000    97.04600000
   H     34.73000000    47.15000000    97.12600000
   H     33.68000000    46.24000000    96.15600000
   H     33.13000000    46.78000000    97.75600000
   H     36.23000000    44.51000000    98.91600000
   H     36.13000000    46.21000000    98.67600000
   H     34.94000000    45.43000000    99.80600000
   N     31.43000000    44.20000000    96.71600000
   C     30.55000000    44.22000000    95.56600000
   C     30.40000000    45.66000000    95.08600000
   O     30.85000000    46.62000000    95.71600000
   C     29.30000000    43.43000000    95.91600000
   C     28.13000000    44.32000000    96.31600000
   N     28.00000000    44.71000000    97.58600000
   O     27.27000000    44.64000000    95.49600000
   H     31.00000000    44.30000000    97.62600000
   H     31.02000000    43.70000000    94.72600000
   H     29.46000000    42.76000000    96.75600000
   H     29.06000000    42.88000000    95.00600000
   H     28.84000000    44.51000000    98.11600000
   H     27.16000000    45.06000000    98.00600000
   N     29.68000000    45.82000000    93.97600000
   C     29.56000000    47.15000000    93.41600000
   C     28.82000000    48.14000000    94.30600000
   O     29.18000000    49.31000000    94.36600000
   C     28.91000000    47.05000000    92.03600000
   C     28.70000000    48.31000000    91.22600000
   C     29.83000000    49.01000000    90.78600000
   C     27.40000000    48.83000000    91.09600000
   C     29.67000000    50.22000000    90.09600000
   C     27.25000000    50.05000000    90.43600000
   C     28.37000000    50.74000000    89.91600000
   O     28.18000000    51.83000000    89.12600000
   H     29.37000000    45.08000000    93.36600000
   H     30.56000000    47.54000000    93.20600000
   H     27.95000000    46.53000000    92.02600000
   H     29.63000000    46.44000000    91.49600000
   H     30.83000000    48.68000000    91.01600000
   H     26.51000000    48.37000000    91.50600000
   H     30.45000000    50.85000000    89.71600000
   H     26.25000000    50.40000000    90.21600000
   H     27.26000000    51.88000000    88.84600000
   N     27.81000000    47.62000000    94.99600000
   C     27.05000000    48.43000000    95.93600000
   C     27.99000000    48.94000000    97.02600000
   O     27.84000000    50.09000000    97.42600000
   C     26.01000000    47.54000000    96.59600000
   C     24.72000000    48.27000000    96.98600000
   C     23.82000000    47.23000000    97.63600000
   O     22.99000000    46.64000000    96.91600000
   O     23.95000000    47.04000000    98.86600000
   H     27.73000000    46.62000000    94.99600000
   H     26.58000000    49.29000000    95.45600000
   H     26.51000000    47.12000000    97.46600000
   H     25.82000000    46.72000000    95.89600000
   H     24.28000000    48.81000000    96.14600000
   H     25.00000000    49.01000000    97.72600000
   N     29.00000000    48.17000000    97.43600000
   C     29.96000000    48.58000000    98.44600000
   C     31.04000000    49.52000000    97.91600000
   O     31.48000000    50.48000000    98.54600000
   C     30.52000000    47.32000000    99.09600000
   C     29.49000000    46.52000000    99.88600000
   C     30.03000000    45.12000000   100.15600000
   O     30.26000000    44.69000000   101.30600000
   O     30.16000000    44.31000000    99.21600000
   H     29.14000000    47.32000000    96.90600000
   H     29.36000000    49.07000000    99.20600000
   H     31.32000000    47.58000000    99.78600000
   H     30.96000000    46.73000000    98.28600000
   H     28.52000000    46.47000000    99.38600000
   H     29.30000000    46.99000000   100.84600000
   N     31.40000000    49.37000000    96.63600000
   C     32.25000000    50.21000000    95.81600000
   H     33.21400000    49.72100000    95.67300000
   H     31.77700000    50.37000000    94.84700000
   H     32.40000000    51.17000000    96.31100000
   H     31.07000000    48.51000000    96.22600000
  Ca     30.23000000    42.10000000   100.77600000
   O     30.17000000    40.49000000    98.37000000
   H     29.48000000    40.17000000    97.79000000
   H     30.41000000    39.73000000    98.90000000
   O     27.85000000    41.86000000    99.34000000
   H     27.45000000    41.09000000    98.93000000
   H     27.22000000    42.15000000    99.99000000

Ca 1.00



