%chk=loop3.apoCaM-CA-Ng.Init293.run54.water6.chk
%nprocshared=20
%mem=10GB
%nosave
#b3lyp/svp scf=(tight,noincore,xqc) Test 
#IOP(5/87=12) Density=Current Pop=(MK,readradii) iop(6/33=2) iop(6/42=6)

loop3.apoCaM-CA-Ng.Init293.run54.water6 

   0  1 
   C     41.53000000    78.01000000    77.20000000
   C     41.26000000    77.61000000    75.76000000
   O     41.86000000    78.20000000    74.86000000
   H     42.30300000    78.77800000    77.22400000
   H     40.61600000    78.40100000    77.64700000
   H     41.86700000    77.13900000    77.76300000
   N     40.45000000    76.58000000    75.49000000
   C     40.36000000    75.92000000    74.20000000
   C     40.16000000    74.42000000    74.30000000
   O     39.87000000    73.90000000    75.38000000
   C     39.18000000    76.51000000    73.43000000
   C     39.08000000    76.15000000    71.96000000
   O     40.10000000    75.73000000    71.39000000
   O     38.02000000    76.32000000    71.31000000
   H     40.02000000    76.09000000    76.26000000
   H     41.32000000    76.00000000    73.69000000
   H     39.17000000    77.59000000    73.57000000
   H     38.25000000    76.19000000    73.89000000
   N     40.34000000    73.67000000    73.21000000
   C     39.85000000    72.31000000    73.06000000
   C     38.34000000    72.17000000    73.06000000
   O     37.62000000    72.97000000    73.66000000
   C     40.56000000    71.29000000    73.94000000
   C     42.09000000    71.34000000    73.90000000
   C     42.79000000    71.30000000    72.54000000
   C     44.30000000    71.14000000    72.72000000
   N     44.96000000    72.36000000    73.23000000
   H     40.39000000    74.19000000    72.35000000
   H     40.04000000    72.03000000    72.02000000
   H     40.32000000    70.29000000    73.57000000
   H     40.18000000    71.40000000    74.95000000
   H     42.44000000    70.54000000    74.54000000
   H     42.39000000    72.30000000    74.33000000
   H     42.60000000    72.21000000    71.97000000
   H     42.47000000    70.41000000    72.00000000
   H     44.82000000    70.78000000    71.83000000
   H     44.32000000    70.36000000    73.47000000
   H     45.90000000    72.22000000    72.91000000
   H     44.70000000    73.23000000    72.78000000
   H     44.95000000    72.42000000    74.24000000
   N     37.85000000    71.16000000    72.33000000
   C     36.48000000    71.10000000    71.86000000
   C     35.43000000    70.68000000    72.87000000
   O     34.27000000    71.08000000    72.81000000
   C     36.49000000    70.43000000    70.49000000
   C     36.92000000    68.97000000    70.61000000
   O     36.20000000    68.20000000    71.27000000
   O     37.89000000    68.54000000    69.95000000
   H     38.49000000    70.60000000    71.78000000
   H     36.21000000    72.15000000    71.71000000
   H     37.19000000    70.95000000    69.84000000
   H     35.55000000    70.58000000    69.97000000
   N     35.84000000    70.10000000    74.01000000
   C     35.05000000    69.62000000    75.13000000
   C     33.83000000    68.76000000    74.86000000
   O     32.85000000    68.71000000    75.59000000
   H     36.83000000    69.94000000    74.03000000
   H     34.64000000    70.48000000    75.66000000
   H     35.73000000    69.07000000    75.78000000
   N     33.78000000    68.14000000    73.67000000
   C     32.57000000    67.45000000    73.30000000
   C     32.48000000    66.12000000    74.05000000
   O     33.50000000    65.53000000    74.40000000
   C     32.58000000    67.30000000    71.78000000
   C     32.30000000    68.66000000    71.15000000
   N     33.31000000    69.30000000    70.56000000
   O     31.21000000    69.20000000    71.32000000
   H     34.41000000    68.25000000    72.89000000
   H     31.67000000    67.96000000    73.65000000
   H     31.80000000    66.57000000    71.63000000
   H     33.50000000    66.96000000    71.30000000
   H     34.22000000    68.85000000    70.51000000
   H     33.19000000    70.30000000    70.46000000
   N     31.24000000    65.63000000    74.13000000
   C     30.93000000    64.33000000    74.69000000
   C     31.24000000    64.22000000    76.18000000
   O     31.43000000    65.18000000    76.92000000
   H     30.47000000    66.22000000    73.87000000
   H     31.56000000    63.64000000    74.13000000
   H     29.87000000    64.16000000    74.53000000
   N     31.01000000    63.06000000    76.80000000
   C     31.35000000    62.62000000    78.14000000
   C     32.83000000    62.58000000    78.48000000
   O     33.24000000    62.08000000    79.53000000
   C     30.57000000    63.45000000    79.16000000
   C     30.40000000    62.93000000    80.56000000
   C     30.72000000    63.74000000    81.67000000
   C     29.79000000    61.68000000    80.75000000
   C     30.29000000    63.31000000    82.93000000
   C     29.55000000    61.20000000    82.04000000
   C     29.79000000    62.02000000    83.16000000
   O     29.60000000    61.58000000    84.44000000
   H     30.78000000    62.30000000    76.17000000
   H     31.04000000    61.58000000    78.22000000
   H     29.58000000    63.70000000    78.77000000
   H     31.07000000    64.41000000    79.26000000
   H     31.11000000    64.72000000    81.44000000
   H     29.58000000    61.00000000    79.94000000
   H     30.26000000    63.91000000    83.83000000
   H     29.26000000    60.18000000    82.26000000
   H     29.35000000    60.66000000    84.56000000
   N     33.69000000    63.09000000    77.60000000
   C     35.14000000    63.17000000    77.68000000
   C     35.94000000    61.88000000    77.57000000
   O     36.89000000    61.75000000    76.80000000
   C     35.58000000    64.08000000    78.82000000
   C     34.99000000    65.48000000    78.63000000
   C     37.10000000    64.07000000    78.95000000
   C     35.31000000    66.34000000    77.41000000
   H     33.29000000    63.40000000    76.73000000
   H     35.35000000    63.71000000    76.76000000
   H     35.25000000    63.62000000    79.75000000
   H     35.40000000    66.01000000    79.49000000
   H     33.91000000    65.47000000    78.66000000
   H     37.39000000    63.10000000    79.35000000
   H     37.68000000    64.32000000    78.06000000
   H     37.34000000    64.90000000    79.61000000
   H     34.70000000    65.92000000    76.61000000
   H     35.06000000    67.37000000    77.67000000
   H     36.38000000    66.22000000    77.23000000
   N     35.47000000    60.83000000    78.24000000
   C     36.01000000    59.49000000    78.12000000
   C     37.47000000    59.39000000    78.52000000
   O     38.17000000    58.52000000    78.02000000
   C     35.17000000    58.50000000    78.93000000
   O     33.80000000    58.78000000    78.79000000
   H     34.74000000    61.04000000    78.91000000
   H     35.95000000    59.20000000    77.07000000
   H     35.54000000    58.61000000    79.95000000
   H     35.41000000    57.52000000    78.51000000
   H     33.32000000    58.12000000    79.31000000
   N     37.87000000    60.16000000    79.54000000
   C     39.24000000    60.30000000    80.00000000
   C     40.24000000    60.74000000    78.94000000
   O     41.37000000    60.27000000    78.91000000
   C     39.54000000    59.04000000    80.81000000
   H     37.14000000    60.67000000    80.01000000
   H     39.17000000    61.11000000    80.73000000
   H     40.38000000    59.31000000    81.44000000
   H     38.69000000    58.74000000    81.42000000
   H     39.83000000    58.26000000    80.11000000
   N     39.86000000    61.63000000    78.01000000
   C     40.58000000    61.98000000    76.80000000
   C     40.84000000    63.48000000    76.74000000
   O     40.23000000    64.39000000    77.30000000
   C     39.81000000    61.33000000    75.66000000
   H     38.94000000    62.02000000    78.13000000
   H     41.57000000    61.52000000    76.84000000
   H     39.48000000    60.37000000    76.05000000
   H     38.86000000    61.83000000    75.44000000
   H     40.41000000    61.24000000    74.75000000
   N     41.87000000    63.85000000    75.98000000
   C     42.45000000    65.17000000    75.76000000
   C     42.90000000    65.99000000    76.96000000
   O     43.30000000    67.15000000    76.91000000
   C     41.50000000    65.98000000    74.88000000
   C     41.11000000    65.43000000    73.51000000
   C     40.40000000    66.43000000    72.61000000
   O     39.15000000    66.55000000    72.56000000
   O     41.14000000    67.15000000    71.92000000
   H     42.38000000    63.07000000    75.59000000
   H     43.31000000    64.93000000    75.15000000
   H     41.96000000    66.93000000    74.63000000
   H     40.69000000    66.35000000    75.51000000
   H     40.37000000    64.64000000    73.68000000
   H     41.92000000    65.04000000    72.90000000
   N     43.10000000    65.35000000    78.12000000
   C     43.53000000    65.99000000    79.34000000
   H     44.40000000    66.61300000    79.13500000
   H     42.72300000    66.61000000    79.73000000
   H     43.79300000    65.23000000    80.07600000
   H     42.92000000    64.36000000    78.14000000
  Ca     37.50000000    66.03000000    70.74000000
   O     36.11000000    66.64000000    68.46000000
   H     35.88000000    65.99000000    67.79000000
   H     35.63000000    67.43000000    68.20000000
   O     36.29000000    65.66000000    73.33000000
   H     35.45000000    66.02000000    73.62000000
   H     36.88000000    65.80000000    74.07000000
   O     38.23000000    64.30000000    68.61000000
   H     38.54000000    63.39000000    68.58000000
   H     37.79000000    64.43000000    67.77000000
   O     40.17000000    66.44000000    69.66000000
   H     40.89000000    66.55000000    69.04000000
   H     40.55000000    66.66000000    70.51000000
   O     38.73000000    63.65000000    71.84000000
   H     39.47000000    63.05000000    71.76000000
   H     38.15000000    63.23000000    72.47000000
   O     35.65000000    64.28000000    70.59000000
   H     35.37000000    63.82000000    69.80000000
   H     35.13000000    63.89000000    71.30000000

Ca 1.00



