%chk=loop3.apoCaM-CA-Ng.Init295.run31.water3.chk
%nprocshared=20
%mem=10GB
%nosave
#b3lyp/svp scf=(tight,noincore,xqc) Test 
#IOP(5/87=12) Density=Current Pop=(MK,readradii) iop(6/33=2) iop(6/42=6)

loop3.apoCaM-CA-Ng.Init295.run31.water3 

   0  1 
   C     83.49000000    45.65000000    75.43000000
   C     83.78000000    44.86000000    76.70000000
   O     84.93000000    44.50000000    76.96000000
   H     82.68400000    46.35900000    75.62000000
   H     84.38600000    46.19200000    75.12600000
   H     83.19100000    44.96600000    74.63600000
   N     82.76000000    44.63000000    77.52000000
   C     82.73000000    43.98000000    78.82000000
   C     83.61000000    42.74000000    78.79000000
   O     83.43000000    41.95000000    77.87000000
   C     81.29000000    43.58000000    79.12000000
   C     81.23000000    43.00000000    80.52000000
   O     81.41000000    43.76000000    81.50000000
   O     81.23000000    41.77000000    80.71000000
   H     81.84000000    44.92000000    77.22000000
   H     83.16000000    44.62000000    79.59000000
   H     80.99000000    42.83000000    78.38000000
   H     80.61000000    44.43000000    79.06000000
   N     84.47000000    42.53000000    79.79000000
   C     85.48000000    41.50000000    79.90000000
   C     84.89000000    40.10000000    79.72000000
   O     85.56000000    39.28000000    79.11000000
   C     86.23000000    41.67000000    81.22000000
   C     87.55000000    40.90000000    81.27000000
   C     88.18000000    41.07000000    82.65000000
   C     89.64000000    40.72000000    82.42000000
   N     90.52000000    40.99000000    83.57000000
   H     84.45000000    43.30000000    80.44000000
   H     86.22000000    41.62000000    79.11000000
   H     85.54000000    41.24000000    81.95000000
   H     86.46000000    42.72000000    81.36000000
   H     88.17000000    41.52000000    80.61000000
   H     87.45000000    39.85000000    81.00000000
   H     87.80000000    40.36000000    83.38000000
   H     88.03000000    42.07000000    83.05000000
   H     90.09000000    41.26000000    81.58000000
   H     89.69000000    39.65000000    82.23000000
   H     90.36000000    40.36000000    84.34000000
   H     91.47000000    40.81000000    83.30000000
   H     90.44000000    41.95000000    83.87000000
   N     83.68000000    39.77000000    80.16000000
   C     82.99000000    38.50000000    79.97000000
   C     81.81000000    38.53000000    79.01000000
   O     81.25000000    37.51000000    78.61000000
   C     82.55000000    38.01000000    81.34000000
   C     81.82000000    38.97000000    82.27000000
   O     80.60000000    39.25000000    82.21000000
   O     82.56000000    39.57000000    83.08000000
   H     83.13000000    40.45000000    80.66000000
   H     83.71000000    37.77000000    79.58000000
   H     83.48000000    37.84000000    81.89000000
   H     81.95000000    37.10000000    81.28000000
   N     81.41000000    39.73000000    78.57000000
   C     80.39000000    39.98000000    77.58000000
   C     78.99000000    40.16000000    78.18000000
   O     78.00000000    40.03000000    77.46000000
   H     81.89000000    40.55000000    78.92000000
   H     80.38000000    39.16000000    76.87000000
   H     80.67000000    40.91000000    77.08000000
   N     78.77000000    40.37000000    79.48000000
   C     77.52000000    40.88000000    80.02000000
   C     77.84000000    42.06000000    80.93000000
   O     78.53000000    41.96000000    81.94000000
   C     76.99000000    39.69000000    80.82000000
   C     75.54000000    39.85000000    81.26000000
   N     74.81000000    38.75000000    81.44000000
   O     75.04000000    40.96000000    81.42000000
   H     79.62000000    40.52000000    80.00000000
   H     76.85000000    41.21000000    79.23000000
   H     77.57000000    39.42000000    81.70000000
   H     77.07000000    38.85000000    80.14000000
   H     75.30000000    37.87000000    81.36000000
   H     73.92000000    38.84000000    81.91000000
   N     77.28000000    43.24000000    80.66000000
   C     77.69000000    44.53000000    81.18000000
   C     77.19000000    44.83000000    82.59000000
   O     77.07000000    45.95000000    83.08000000
   H     76.70000000    43.20000000    79.83000000
   H     77.32000000    45.29000000    80.48000000
   H     78.78000000    44.51000000    81.17000000
   N     76.66000000    43.84000000    83.30000000
   C     76.63000000    43.86000000    84.75000000
   C     78.01000000    44.09000000    85.35000000
   O     78.94000000    43.35000000    85.03000000
   C     76.07000000    42.54000000    85.27000000
   C     74.59000000    42.37000000    85.02000000
   C     73.63000000    43.38000000    85.15000000
   C     74.23000000    41.12000000    84.52000000
   C     72.30000000    43.07000000    84.81000000
   C     72.89000000    40.72000000    84.37000000
   C     71.95000000    41.76000000    84.44000000
   O     70.62000000    41.47000000    84.27000000
   H     76.46000000    42.96000000    82.85000000
   H     75.94000000    44.64000000    85.05000000
   H     76.10000000    42.59000000    86.35000000
   H     76.62000000    41.65000000    84.95000000
   H     73.87000000    44.32000000    85.63000000
   H     75.02000000    40.43000000    84.26000000
   H     71.64000000    43.92000000    84.88000000
   H     72.66000000    39.68000000    84.24000000
   H     70.44000000    40.61000000    83.89000000
   N     78.06000000    45.15000000    86.17000000
   C     79.22000000    45.57000000    86.92000000
   C     79.94000000    44.61000000    87.86000000
   O     79.91000000    43.40000000    87.65000000
   C     80.16000000    46.41000000    86.05000000
   C     79.59000000    47.33000000    84.98000000
   C     81.26000000    45.55000000    85.44000000
   C     78.50000000    48.34000000    85.35000000
   H     77.16000000    45.58000000    86.32000000
   H     78.82000000    46.33000000    87.58000000
   H     80.57000000    47.08000000    86.80000000
   H     79.18000000    46.63000000    84.25000000
   H     80.42000000    47.82000000    84.48000000
   H     80.87000000    44.84000000    84.72000000
   H     82.06000000    46.07000000    84.91000000
   H     81.80000000    45.04000000    86.23000000
   H     77.67000000    47.92000000    85.91000000
   H     79.08000000    49.11000000    85.85000000
   H     78.14000000    48.78000000    84.42000000
   N     80.58000000    45.13000000    88.91000000
   C     81.09000000    44.30000000    89.98000000
   C     80.39000000    44.45000000    91.33000000
   O     80.55000000    43.58000000    92.18000000
   C     82.60000000    44.51000000    90.10000000
   O     82.89000000    45.85000000    90.44000000
   H     80.51000000    46.13000000    89.02000000
   H     80.89000000    43.27000000    89.71000000
   H     83.00000000    44.27000000    89.12000000
   H     83.13000000    43.95000000    90.87000000
   H     83.84000000    46.01000000    90.40000000
   N     79.67000000    45.57000000    91.51000000
   C     79.10000000    46.02000000    92.76000000
   C     79.76000000    45.55000000    94.04000000
   O     79.00000000    44.88000000    94.74000000
   C     77.60000000    45.80000000    92.60000000
   H     79.48000000    46.11000000    90.68000000
   H     79.22000000    47.10000000    92.83000000
   H     77.30000000    46.48000000    91.80000000
   H     77.46000000    44.77000000    92.25000000
   H     76.98000000    46.04000000    93.46000000
   N     80.95000000    45.90000000    94.55000000
   C     82.06000000    46.64000000    93.99000000
   C     82.08000000    48.03000000    94.63000000
   O     82.50000000    48.12000000    95.78000000
   C     83.35000000    45.88000000    94.24000000
   H     81.02000000    45.66000000    95.53000000
   H     81.90000000    46.69000000    92.92000000
   H     83.27000000    44.85000000    93.88000000
   H     84.24000000    46.36000000    93.82000000
   H     83.43000000    45.92000000    95.33000000
   N     81.86000000    49.12000000    93.91000000
   C     81.46000000    49.14000000    92.51000000
   C     80.49000000    50.16000000    91.95000000
   O     79.90000000    49.94000000    90.89000000
   C     82.78000000    49.16000000    91.74000000
   C     83.46000000    50.52000000    91.82000000
   C     84.87000000    50.52000000    91.23000000
   O     85.63000000    49.59000000    91.56000000
   O     85.11000000    51.37000000    90.35000000
   H     81.75000000    49.98000000    94.42000000
   H     80.98000000    48.20000000    92.21000000
   H     82.45000000    49.02000000    90.71000000
   H     83.44000000    48.35000000    92.06000000
   H     83.68000000    50.65000000    92.88000000
   H     82.86000000    51.30000000    91.34000000
   N     80.11000000    51.21000000    92.68000000
   C     79.16000000    52.21000000    92.25000000
   H     78.26800000    52.15400000    92.87300000
   H     79.60600000    53.20000000    92.34300000
   H     78.88800000    52.03000000    91.21000000
   H     80.58000000    51.29000000    93.57000000
  Ca     80.83000000    41.60000000    83.26000000
   O     83.25000000    43.18000000    83.40000000
   H     84.07000000    43.30000000    83.88000000
   H     83.33000000    43.75000000    82.64000000
   O     79.45000000    40.24000000    84.98000000
   H     80.00000000    39.56000000    85.37000000
   H     78.70000000    40.31000000    85.57000000
   O     81.61000000    41.94000000    85.83000000
   H     80.98000000    42.20000000    86.50000000
   H     82.39000000    41.69000000    86.33000000

Ca 1.00



