%chk=loop4.apoCaM-CA-Ng.Init293.run49.water3.chk
%nprocshared=20
%mem=10GB
%nosave
#b3lyp/svp scf=(tight,noincore,xqc) Test 
#IOP(5/87=12) Density=Current Pop=(MK,readradii) iop(6/33=2) iop(6/42=6)

loop4.apoCaM-CA-Ng.Init293.run49.water3 

   -3  1 
   C     42.77000000    69.74000000    68.58000000
   C     42.62000000    70.20000000    67.14000000
   O     42.22000000    71.32000000    66.84000000
   H     43.38500000    70.45400000    69.12700000
   H     41.78700000    69.67700000    69.04600000
   H     43.24600000    68.76000000    68.60100000
   N     42.80000000    69.25000000    66.21000000
   C     42.61000000    69.36000000    64.78000000
   C     43.39000000    70.43000000    64.02000000
   O     43.43000000    70.51000000    62.80000000
   C     41.14000000    69.29000000    64.37000000
   C     40.30000000    70.41000000    64.98000000
   O     40.47000000    71.61000000    64.68000000
   O     39.43000000    70.04000000    65.80000000
   H     43.09000000    68.33000000    66.49000000
   H     42.99000000    68.41000000    64.42000000
   H     40.75000000    68.37000000    64.79000000
   H     41.09000000    69.32000000    63.29000000
   N     44.26000000    71.12000000    64.75000000
   C     44.96000000    72.28000000    64.24000000
   C     44.03000000    73.37000000    63.73000000
   O     43.06000000    73.64000000    64.43000000
   C     45.95000000    72.87000000    65.25000000
   C     47.08000000    71.85000000    65.43000000
   C     45.29000000    73.18000000    66.59000000
   C     48.27000000    72.45000000    66.17000000
   H     44.29000000    71.03000000    65.76000000
   H     45.57000000    71.99000000    63.38000000
   H     46.35000000    73.81000000    64.88000000
   H     47.38000000    71.56000000    64.43000000
   H     46.69000000    70.99000000    65.97000000
   H     44.85000000    72.32000000    67.08000000
   H     45.92000000    73.69000000    67.32000000
   H     44.48000000    73.83000000    66.27000000
   H     48.15000000    72.76000000    67.20000000
   H     49.19000000    71.85000000    66.10000000
   H     48.58000000    73.32000000    65.58000000
   N     44.51000000    74.19000000    62.79000000
   C     43.74000000    75.25000000    62.16000000
   C     42.49000000    74.78000000    61.43000000
   O     42.42000000    73.68000000    60.89000000
   C     44.57000000    76.06000000    61.17000000
   C     45.04000000    75.48000000    59.84000000
   O     46.14000000    74.90000000    59.77000000
   O     44.34000000    75.65000000    58.83000000
   H     45.46000000    74.07000000    62.45000000
   H     43.45000000    75.90000000    62.99000000
   H     45.47000000    76.41000000    61.68000000
   H     44.06000000    77.01000000    61.00000000
   N     41.40000000    75.55000000    61.40000000
   C     41.29000000    76.79000000    62.14000000
   C     40.95000000    76.70000000    63.62000000
   O     41.01000000    75.59000000    64.14000000
   H     40.60000000    75.14000000    60.94000000
   H     40.41000000    77.18000000    61.64000000
   H     42.21000000    77.35000000    61.96000000
   N     40.55000000    77.76000000    64.32000000
   C     40.15000000    79.05000000    63.78000000
   C     41.23000000    79.79000000    63.01000000
   O     40.91000000    80.38000000    61.98000000
   C     39.56000000    80.03000000    64.79000000
   C     38.37000000    79.56000000    65.61000000
   O     37.76000000    78.50000000    65.35000000
   O     37.97000000    80.25000000    66.57000000
   H     40.46000000    77.64000000    65.32000000
   H     39.41000000    78.85000000    63.00000000
   H     39.29000000    80.92000000    64.22000000
   H     40.38000000    80.23000000    65.49000000
   N     42.52000000    79.86000000    63.35000000
   C     43.31000000    79.29000000    64.42000000
   C     44.78000000    79.17000000    64.05000000
   O     45.13000000    78.90000000    62.90000000
   H     42.98000000    80.41000000    62.64000000
   H     42.99000000    78.26000000    64.58000000
   H     43.06000000    79.72000000    65.38000000
   N     45.59000000    79.44000000    65.08000000
   C     47.00000000    79.71000000    64.94000000
   C     47.82000000    79.25000000    66.14000000
   O     48.02000000    79.94000000    67.14000000
   C     47.18000000    81.20000000    64.68000000
   C     48.50000000    81.63000000    64.03000000
   C     49.71000000    81.55000000    64.95000000
   N     49.81000000    82.45000000    65.92000000
   O     50.63000000    80.74000000    64.85000000
   H     45.14000000    79.75000000    65.93000000
   H     47.38000000    79.13000000    64.10000000
   H     46.95000000    81.79000000    65.57000000
   H     46.52000000    81.50000000    63.87000000
   H     48.40000000    82.70000000    63.86000000
   H     48.69000000    81.03000000    63.14000000
   H     49.14000000    83.18000000    66.14000000
   H     50.67000000    82.38000000    66.45000000
   N     48.30000000    78.01000000    66.09000000
   C     48.90000000    77.38000000    67.25000000
   C     47.83000000    76.97000000    68.25000000
   O     46.97000000    76.13000000    68.01000000
   C     49.76000000    76.18000000    66.86000000
   C     50.45000000    75.38000000    67.96000000
   C     50.75000000    76.45000000    65.73000000
   H     48.12000000    77.38000000    65.32000000
   H     49.50000000    78.17000000    67.71000000
   H     49.01000000    75.53000000    66.42000000
   H     50.95000000    74.54000000    67.47000000
   H     51.19000000    75.99000000    68.48000000
   H     49.67000000    74.99000000    68.63000000
   H     51.15000000    75.53000000    65.31000000
   H     50.31000000    77.04000000    64.92000000
   H     51.53000000    77.12000000    66.10000000
   N     47.90000000    77.63000000    69.41000000
   C     46.88000000    77.66000000    70.44000000
   C     45.77000000    78.70000000    70.33000000
   O     44.83000000    78.72000000    71.12000000
   C     47.61000000    77.82000000    71.78000000
   C     46.80000000    77.40000000    72.99000000
   N     47.17000000    77.80000000    74.21000000
   O     45.82000000    76.66000000    73.01000000
   H     48.51000000    78.43000000    69.47000000
   H     46.38000000    76.70000000    70.42000000
   H     47.90000000    78.87000000    71.83000000
   H     48.49000000    77.17000000    71.70000000
   H     47.95000000    78.44000000    74.28000000
   H     46.50000000    77.58000000    74.94000000
   N     45.78000000    79.60000000    69.35000000
   C     44.80000000    80.64000000    69.13000000
   C     43.36000000    80.24000000    68.85000000
   O     43.08000000    79.72000000    67.77000000
   C     45.31000000    81.53000000    68.00000000
   C     44.51000000    82.80000000    67.83000000
   C     43.78000000    82.98000000    66.65000000
   C     44.42000000    83.80000000    68.81000000
   C     43.06000000    84.15000000    66.40000000
   C     43.64000000    84.95000000    68.63000000
   C     42.92000000    85.10000000    67.43000000
   O     41.87000000    85.96000000    67.33000000
   H     46.43000000    79.43000000    68.59000000
   H     44.78000000    81.20000000    70.07000000
   H     45.48000000    81.02000000    67.05000000
   H     46.31000000    81.79000000    68.35000000
   H     43.93000000    82.21000000    65.91000000
   H     44.98000000    83.61000000    69.71000000
   H     42.36000000    84.06000000    65.57000000
   H     43.53000000    85.64000000    69.45000000
   H     41.65000000    86.13000000    66.41000000
   N     42.50000000    80.54000000    69.83000000
   C     41.10000000    80.17000000    69.88000000
   C     40.84000000    78.69000000    70.11000000
   O     39.71000000    78.23000000    69.94000000
   C     40.28000000    80.82000000    68.77000000
   C     40.63000000    82.29000000    68.58000000
   C     40.10000000    83.16000000    69.71000000
   O     40.79000000    83.90000000    70.43000000
   O     38.86000000    83.11000000    69.87000000
   H     42.85000000    81.06000000    70.61000000
   H     40.74000000    80.71000000    70.76000000
   H     39.21000000    80.70000000    68.95000000
   H     40.54000000    80.36000000    67.82000000
   H     40.14000000    82.60000000    67.65000000
   H     41.70000000    82.47000000    68.44000000
   N     41.86000000    77.96000000    70.59000000
   C     41.77000000    76.54000000    70.86000000
   C     41.28000000    76.16000000    72.25000000
   O     40.68000000    75.09000000    72.34000000
   C     43.11000000    75.83000000    70.65000000
   C     43.61000000    75.85000000    69.21000000
   C     42.70000000    75.17000000    68.20000000
   O     42.39000000    75.70000000    67.11000000
   O     42.17000000    74.08000000    68.50000000
   H     42.69000000    78.45000000    70.87000000
   H     41.08000000    76.08000000    70.14000000
   H     43.03000000    74.81000000    71.03000000
   H     43.82000000    76.29000000    71.33000000
   H     44.53000000    75.28000000    69.21000000
   H     43.89000000    76.89000000    69.05000000
   N     41.43000000    77.00000000    73.27000000
   C     40.98000000    76.77000000    74.63000000
   H     39.95200000    76.40700000    74.61600000
   H     41.62100000    76.02700000    75.10500000
   H     41.02700000    77.70300000    75.19200000
   H     42.10000000    77.74000000    73.12000000
  Ca     40.97000000    73.72000000    66.12000000
   O     39.11000000    72.83000000    67.94000000
   H     39.11000000    72.01000000    68.43000000
   H     38.38000000    73.33000000    68.31000000
   O     39.38000000    75.81000000    67.05000000
   H     38.63000000    75.98000000    67.61000000
   H     39.86000000    76.64000000    67.04000000
   O     38.47000000    73.74000000    64.92000000
   H     38.49000000    73.58000000    63.98000000
   H     37.92000000    74.52000000    65.02000000

Ca 1.00



