%chk=loop1.holoCaM.run28.water2.chk
%nprocshared=20
%mem=10GB
%nosave
#b3lyp/svp scf=(tight,noincore,xqc) Test 
#IOP(5/87=12) Density=Current Pop=(MK,readradii) iop(6/33=2) iop(6/42=6)

loop1.holoCaM.run28.water2 

   0  1 
   C     61.10000000    65.28000000   110.24300000
   C     60.33000000    65.62000000   111.51300000
   O     59.10000000    65.62000000   111.60300000
   H     62.09500000    64.92200000   110.50700000
   H     60.56900000    64.50300000   109.69300000
   H     61.18800000    66.17100000   109.62100000
   N     61.08000000    66.04000000   112.52300000
   C     60.70000000    66.94000000   113.60300000
   C     60.22000000    68.22000000   112.94300000
   O     61.01000000    68.81000000   112.20300000
   C     61.75000000    67.20000000   114.68300000
   C     61.15000000    67.96000000   115.85300000
   O     62.03000000    68.30000000   116.67300000
   O     59.93000000    68.24000000   115.94300000
   H     62.08000000    65.92000000   112.46300000
   H     59.83000000    66.49000000   114.08300000
   H     62.63000000    67.71000000   114.28300000
   H     62.09000000    66.22000000   115.03300000
   N     58.99000000    68.66000000   113.20300000
   C     58.42000000    69.89000000   112.66300000
   C     58.40000000    71.09000000   113.60300000
   O     57.91000000    72.11000000   113.11300000
   C     57.15000000    69.62000000   111.87300000
   C     57.28000000    68.46000000   110.89300000
   C     58.35000000    68.51000000   109.82300000
   C     58.28000000    67.22000000   109.01300000
   N     58.93000000    67.45000000   107.71300000
   H     58.49000000    68.22000000   113.95300000
   H     59.21000000    70.13000000   111.95300000
   H     56.79000000    70.49000000   111.31300000
   H     56.32000000    69.40000000   112.54300000
   H     56.27000000    68.28000000   110.52300000
   H     57.54000000    67.62000000   111.54300000
   H     59.35000000    68.66000000   110.24300000
   H     58.12000000    69.37000000   109.19300000
   H     57.22000000    67.02000000   108.91300000
   H     58.65000000    66.40000000   109.63300000
   H     59.94000000    67.50000000   107.76300000
   H     58.66000000    66.80000000   106.99300000
   H     58.64000000    68.37000000   107.41300000
   N     59.00000000    71.08000000   114.79300000
   C     58.86000000    72.07000000   115.84300000
   C     59.95000000    72.16000000   116.89300000
   O     59.80000000    72.99000000   117.78300000
   C     57.43000000    72.07000000   116.36300000
   C     57.10000000    70.90000000   117.28300000
   O     57.96000000    70.01000000   117.46300000
   O     55.92000000    70.86000000   117.67300000
   H     59.52000000    70.26000000   115.07300000
   H     58.90000000    73.00000000   115.27300000
   H     56.74000000    72.05000000   115.51300000
   H     57.21000000    73.01000000   116.85300000
   N     61.03000000    71.37000000   116.80300000
   C     62.26000000    71.55000000   117.54300000
   C     62.41000000    70.71000000   118.80300000
   O     63.44000000    70.87000000   119.45300000
   H     60.90000000    70.72000000   116.04300000
   H     62.56000000    72.58000000   117.73300000
   H     63.02000000    71.16000000   116.86300000
   N     61.39000000    69.96000000   119.25300000
   C     61.45000000    69.38000000   120.57300000
   C     62.37000000    68.17000000   120.68300000
   O     62.54000000    67.57000000   121.74300000
   C     60.03000000    69.02000000   120.99300000
   C     59.25000000    68.23000000   119.95300000
   O     58.01000000    68.37000000   119.99300000
   O     59.81000000    67.41000000   119.20300000
   H     60.58000000    69.85000000   118.66300000
   H     61.87000000    70.01000000   121.36300000
   H     59.47000000    69.93000000   121.23300000
   H     60.05000000    68.39000000   121.88300000
   N     62.88000000    67.80000000   119.50300000
   C     63.75000000    66.68000000   119.23300000
   C     63.07000000    65.32000000   119.29300000
   O     63.68000000    64.34000000   119.71300000
   H     62.66000000    68.37000000   118.70300000
   H     64.43000000    66.55000000   120.08300000
   H     64.28000000    66.80000000   118.29300000
   N     61.77000000    65.29000000   118.97300000
   C     60.89000000    64.14000000   118.97300000
   C     59.90000000    64.26000000   117.82300000
   O     59.60000000    65.32000000   117.28300000
   C     60.19000000    63.89000000   120.31300000
   C     61.13000000    63.80000000   121.51300000
   O     59.35000000    65.01000000   120.51300000
   H     61.37000000    66.19000000   118.76300000
   H     61.56000000    63.34000000   118.67300000
   H     59.59000000    62.99000000   120.20300000
   H     59.77000000    65.80000000   120.17300000
   H     61.51000000    64.77000000   121.82300000
   H     60.65000000    63.18000000   122.26300000
   H     61.93000000    63.16000000   121.16300000
   N     59.21000000    63.16000000   117.50300000
   C     58.15000000    63.06000000   116.52300000
   C     56.87000000    62.50000000   117.13300000
   O     56.83000000    61.50000000   117.84300000
   C     58.68000000    62.21000000   115.37300000
   C     59.83000000    62.91000000   114.64300000
   C     57.63000000    61.83000000   114.33300000
   C     60.52000000    62.12000000   113.54300000
   H     59.52000000    62.33000000   117.98300000
   H     57.91000000    64.04000000   116.10300000
   H     59.14000000    61.30000000   115.74300000
   H     60.59000000    63.10000000   115.40300000
   H     59.36000000    63.83000000   114.29300000
   H     56.89000000    61.21000000   114.83300000
   H     57.15000000    62.73000000   113.93300000
   H     57.98000000    61.10000000   113.60300000
   H     61.45000000    62.63000000   113.27300000
   H     60.79000000    61.09000000   113.77300000
   H     59.85000000    62.25000000   112.69300000
   N     55.72000000    63.04000000   116.72300000
   C     54.42000000    62.62000000   117.17300000
   C     53.41000000    62.40000000   116.05300000
   O     53.77000000    62.64000000   114.90300000
   C     53.88000000    63.65000000   118.16300000
   C     53.87000000    65.10000000   117.69300000
   O     52.64000000    63.28000000   118.73300000
   H     55.86000000    63.95000000   116.29300000
   H     54.59000000    61.70000000   117.72300000
   H     54.66000000    63.64000000   118.91300000
   H     52.48000000    63.80000000   119.52300000
   H     53.61000000    65.85000000   118.44300000
   H     54.90000000    65.29000000   117.38300000
   H     53.11000000    65.24000000   116.92300000
   N     52.17000000    61.96000000   116.24300000
   C     51.26000000    61.36000000   115.29300000
   C     50.95000000    62.28000000   114.12300000
   O     50.81000000    61.86000000   112.97300000
   C     49.93000000    61.08000000   115.99300000
   C     48.84000000    60.43000000   115.15300000
   O     50.09000000    60.26000000   117.13300000
   H     51.85000000    62.00000000   117.20300000
   H     51.65000000    60.42000000   114.90300000
   H     49.45000000    62.04000000   116.18300000
   H     49.50000000    60.55000000   117.82300000
   H     48.70000000    60.95000000   114.21300000
   H     49.24000000    59.43000000   114.96300000
   H     47.96000000    60.25000000   115.76300000
   N     50.81000000    63.58000000   114.42300000
   C     50.65000000    64.66000000   113.47300000
   C     51.82000000    64.95000000   112.55300000
   O     51.63000000    65.51000000   111.48300000
   C     50.22000000    65.83000000   114.36300000
   C     49.81000000    67.09000000   113.61300000
   C     48.57000000    66.75000000   112.77300000
   C     47.88000000    67.88000000   112.00300000
   N     47.08000000    68.74000000   112.88300000
   H     50.93000000    63.84000000   115.39300000
   H     49.79000000    64.37000000   112.86300000
   H     51.12000000    66.11000000   114.91300000
   H     49.45000000    65.58000000   115.09300000
   H     50.62000000    67.53000000   113.04300000
   H     49.47000000    67.87000000   114.29300000
   H     47.86000000    66.17000000   113.36300000
   H     48.83000000    66.12000000   111.92300000
   H     47.21000000    67.33000000   111.34300000
   H     48.67000000    68.40000000   111.47300000
   H     47.55000000    69.01000000   113.73300000
   H     46.82000000    69.60000000   112.40300000
   H     46.16000000    68.38000000   113.09300000
   N     53.03000000    64.61000000   113.00300000
   C     54.26000000    64.82000000   112.27300000
   C     54.78000000    63.58000000   111.54300000
   O     55.30000000    63.76000000   110.45300000
   C     55.36000000    65.24000000   113.24300000
   C     55.17000000    66.60000000   113.89300000
   C     56.32000000    66.93000000   114.83300000
   O     56.79000000    66.00000000   115.54300000
   O     56.64000000    68.10000000   115.12300000
   H     53.04000000    64.15000000   113.90300000
   H     54.10000000    65.64000000   111.56300000
   H     56.33000000    65.20000000   112.75300000
   H     55.35000000    64.52000000   114.06300000
   H     54.20000000    66.70000000   114.39300000
   H     55.23000000    67.29000000   113.05300000
   N     54.48000000    62.37000000   112.02300000
   C     54.95000000    61.14000000   111.44300000
   H     55.94000000    60.90900000   111.83600000
   H     54.26200000    60.33300000   111.69500000
   H     55.00500000    61.24600000   110.36000000
   H     53.99000000    62.32000000   112.91300000
  Ca     57.93000000    67.58000000   117.37300000
   O     56.93000000    65.71000000   119.17300000
   H     56.28000000    65.93000000   119.84300000
   H     57.65000000    65.32000000   119.66300000
   O     55.44000000    68.23000000   118.30300000
   H     54.99000000    67.86000000   119.06300000
   H     55.50000000    69.17000000   118.49300000

Ca 1.00



