%chk=loop2.holoCaM-CaMKII.run8.water2.chk
%nprocshared=20
%mem=10GB
%nosave
#b3lyp/svp scf=(tight,noincore,xqc) Test 
#IOP(5/87=12) Density=Current Pop=(MK,readradii) iop(6/33=2) iop(6/42=6)

loop2.holoCaM-CaMKII.run8.water2 

   -2  1 
   C     66.49000000    75.72000000    24.91000000
   C     66.90000000    77.19000000    25.00000000
   O     67.42000000    77.68000000    26.00000000
   H     65.54000000    75.64000000    24.38100000
   H     67.25400000    75.16100000    24.37000000
   H     66.38100000    75.31000000    25.91400000
   N     66.74000000    77.94000000    23.90000000
   C     67.42000000    79.20000000    23.73000000
   C     66.92000000    80.23000000    24.73000000
   O     65.77000000    80.30000000    25.17000000
   C     67.34000000    79.77000000    22.31000000
   C     68.53000000    80.63000000    21.91000000
   O     69.43000000    80.98000000    22.70000000
   O     68.58000000    81.03000000    20.73000000
   H     66.39000000    77.53000000    23.05000000
   H     68.49000000    79.03000000    23.86000000
   H     66.42000000    80.31000000    22.10000000
   H     67.30000000    78.93000000    21.62000000
   N     67.82000000    81.14000000    25.10000000
   C     67.60000000    82.24000000    26.02000000
   C     68.26000000    83.54000000    25.60000000
   O     67.95000000    84.55000000    26.22000000
   C     68.10000000    81.78000000    27.39000000
   H     68.74000000    81.01000000    24.70000000
   H     66.53000000    82.42000000    26.06000000
   H     67.75000000    80.78000000    27.65000000
   H     69.19000000    81.78000000    27.29000000
   H     67.90000000    82.51000000    28.17000000
   N     69.07000000    83.50000000    24.54000000
   C     69.59000000    84.73000000    23.98000000
   C     69.40000000    84.86000000    22.48000000
   O     69.19000000    85.99000000    22.05000000
   C     71.02000000    85.10000000    24.39000000
   C     71.96000000    83.92000000    24.22000000
   O     71.68000000    83.13000000    23.29000000
   O     72.97000000    83.83000000    24.94000000
   H     69.53000000    82.62000000    24.34000000
   H     68.86000000    85.49000000    24.27000000
   H     71.06000000    85.50000000    25.41000000
   H     71.43000000    85.78000000    23.65000000
   N     69.19000000    83.79000000    21.70000000
   C     69.05000000    83.98000000    20.27000000
   C     70.43000000    84.10000000    19.63000000
   O     70.48000000    84.47000000    18.46000000
   H     69.29000000    82.83000000    22.01000000
   H     68.46000000    84.86000000    20.01000000
   H     68.58000000    83.08000000    19.89000000
   N     71.52000000    83.73000000    20.31000000
   C     72.87000000    83.93000000    19.83000000
   C     73.40000000    82.91000000    18.82000000
   O     74.55000000    83.03000000    18.40000000
   C     73.81000000    84.08000000    21.02000000
   C     74.18000000    82.84000000    21.83000000
   N     75.05000000    82.94000000    22.84000000
   O     73.80000000    81.74000000    21.46000000
   H     71.39000000    83.41000000    21.26000000
   H     72.84000000    84.88000000    19.30000000
   H     73.42000000    84.73000000    21.80000000
   H     74.74000000    84.54000000    20.68000000
   H     75.18000000    83.85000000    23.25000000
   H     75.31000000    82.16000000    23.42000000
   N     72.57000000    82.04000000    18.24000000
   C     72.87000000    81.08000000    17.20000000
   C     73.75000000    79.89000000    17.57000000
   O     74.28000000    79.16000000    16.74000000
   H     71.86000000    81.79000000    18.91000000
   H     73.37000000    81.65000000    16.42000000
   H     71.97000000    80.66000000    16.75000000
   N     73.87000000    79.65000000    18.88000000
   C     74.59000000    78.57000000    19.52000000
   C     74.00000000    78.15000000    20.86000000
   O     73.10000000    78.85000000    21.34000000
   C     76.06000000    78.91000000    19.77000000
   C     76.94000000    79.19000000    18.56000000
   O     76.23000000    80.08000000    20.54000000
   H     73.20000000    80.11000000    19.47000000
   H     74.54000000    77.63000000    18.99000000
   H     76.65000000    78.10000000    20.20000000
   H     75.38000000    80.30000000    20.93000000
   H     76.61000000    80.04000000    17.96000000
   H     77.92000000    79.37000000    19.00000000
   H     76.92000000    78.32000000    17.90000000
   N     74.37000000    77.02000000    21.47000000
   C     74.01000000    76.60000000    22.81000000
   C     75.14000000    76.97000000    23.75000000
   O     76.29000000    76.59000000    23.52000000
   C     73.75000000    75.10000000    22.90000000
   C     72.59000000    74.71000000    21.99000000
   C     73.44000000    74.70000000    24.34000000
   C     72.46000000    73.20000000    21.86000000
   H     75.11000000    76.53000000    21.00000000
   H     73.09000000    77.05000000    23.19000000
   H     74.61000000    74.50000000    22.62000000
   H     72.79000000    75.09000000    20.99000000
   H     71.64000000    75.06000000    22.38000000
   H     74.26000000    74.94000000    25.02000000
   H     72.58000000    75.30000000    24.62000000
   H     73.21000000    73.63000000    24.40000000
   H     72.17000000    72.72000000    22.80000000
   H     71.63000000    73.00000000    21.19000000
   H     73.31000000    72.75000000    21.35000000
   N     74.75000000    77.69000000    24.81000000
   C     75.62000000    78.03000000    25.91000000
   C     75.41000000    77.18000000    27.16000000
   O     74.36000000    76.56000000    27.32000000
   C     75.46000000    79.50000000    26.29000000
   C     75.30000000    80.48000000    25.13000000
   O     74.15000000    80.59000000    24.64000000
   O     76.24000000    81.27000000    24.92000000
   H     73.75000000    77.73000000    24.90000000
   H     76.69000000    77.96000000    25.69000000
   H     76.31000000    79.75000000    26.91000000
   H     74.58000000    79.75000000    26.89000000
   N     76.35000000    77.16000000    28.10000000
   C     76.37000000    76.17000000    29.16000000
   C     75.17000000    76.15000000    30.10000000
   O     74.83000000    75.01000000    30.43000000
   C     77.63000000    76.37000000    29.99000000
   C     77.84000000    75.28000000    31.02000000
   C     77.73000000    75.60000000    32.38000000
   C     77.96000000    73.94000000    30.66000000
   C     77.69000000    74.58000000    33.35000000
   C     77.88000000    72.92000000    31.62000000
   C     77.81000000    73.24000000    32.98000000
   H     77.23000000    77.65000000    27.97000000
   H     76.44000000    75.19000000    28.70000000
   H     77.62000000    77.30000000    30.56000000
   H     78.49000000    76.34000000    29.33000000
   H     77.51000000    76.64000000    32.56000000
   H     78.12000000    73.72000000    29.61000000
   H     77.60000000    74.93000000    34.37000000
   H     78.05000000    71.91000000    31.28000000
   H     77.73000000    72.48000000    33.75000000
   N     74.60000000    77.29000000    30.51000000
   C     73.37000000    77.27000000    31.27000000
   C     72.17000000    76.74000000    30.51000000
   O     71.19000000    76.25000000    31.07000000
   C     73.03000000    78.71000000    31.63000000
   C     74.42000000    79.34000000    31.61000000
   C     75.07000000    78.65000000    30.41000000
   H     73.49000000    76.66000000    32.17000000
   H     72.56000000    79.11000000    30.73000000
   H     72.54000000    78.82000000    32.60000000
   H     74.37000000    80.40000000    31.35000000
   H     75.02000000    79.18000000    32.50000000
   H     74.70000000    79.07000000    29.48000000
   H     76.15000000    78.78000000    30.44000000
   N     72.14000000    76.90000000    29.19000000
   C     71.10000000    76.25000000    28.40000000
   C     71.34000000    74.78000000    28.12000000
   O     70.38000000    74.03000000    27.96000000
   C     70.99000000    76.96000000    27.05000000
   C     71.07000000    78.48000000    27.03000000
   C     70.99000000    79.12000000    25.65000000
   O     70.63000000    80.31000000    25.57000000
   O     71.35000000    78.53000000    24.61000000
   H     72.83000000    77.37000000    28.63000000
   H     70.17000000    76.33000000    28.96000000
   H     70.01000000    76.72000000    26.65000000
   H     71.70000000    76.48000000    26.38000000
   H     71.96000000    78.87000000    27.53000000
   H     70.24000000    78.82000000    27.64000000
   N     72.60000000    74.34000000    28.09000000
   C     72.86000000    72.91000000    28.16000000
   H     73.79400000    72.73700000    28.69400000
   H     72.04400000    72.41700000    28.68800000
   H     72.93800000    72.50500000    27.15100000
   H     73.33000000    75.01000000    28.24000000
  Ca     72.05000000    80.59000000    23.17000000
   O     70.58000000    78.22000000    22.20000000
   H     70.04000000    77.44000000    22.09000000
   H     70.86000000    78.19000000    23.12000000
   O     71.11000000    80.38000000    20.31000000
   H     71.11000000    79.43000000    20.48000000
   H     70.19000000    80.63000000    20.42000000

Ca 1.00



