%chk=loop2.apoCaM-CA-Ng.Init31.run92.water5.chk
%nprocshared=20
%mem=10GB
%nosave
#b3lyp/svp scf=(tight,noincore,xqc) Test 
#IOP(5/87=12) Density=Current Pop=(MK,readradii) iop(6/33=2) iop(6/42=6)

loop2.apoCaM-CA-Ng.Init31.run92.water5 

   -2  1 
   C     38.49000000    56.91000000    26.03000000
   C     38.17000000    55.67000000    26.85000000
   O     37.06000000    55.62000000    27.37000000
   H     39.49800000    56.82600000    25.62400000
   H     37.77600000    56.99900000    25.21200000
   H     38.42700000    57.79300000    26.66600000
   N     39.02000000    54.64000000    26.93000000
   C     40.42000000    54.51000000    26.58000000
   C     41.15000000    53.58000000    27.54000000
   O     40.71000000    52.44000000    27.68000000
   C     40.54000000    54.00000000    25.15000000
   C     40.34000000    52.50000000    24.98000000
   O     39.17000000    52.08000000    24.96000000
   O     41.28000000    51.73000000    24.67000000
   H     38.68000000    53.86000000    27.47000000
   H     40.88000000    55.50000000    26.56000000
   H     41.52000000    54.34000000    24.80000000
   H     39.76000000    54.59000000    24.66000000
   N     42.38000000    53.92000000    27.92000000
   C     43.17000000    53.03000000    28.74000000
   C     42.72000000    52.98000000    30.19000000
   O     43.54000000    52.82000000    31.09000000
   C     44.62000000    53.45000000    28.54000000
   H     42.67000000    54.85000000    27.64000000
   H     43.09000000    52.06000000    28.25000000
   H     44.94000000    53.68000000    27.52000000
   H     44.90000000    54.26000000    29.21000000
   H     45.26000000    52.58000000    28.70000000
   N     41.45000000    53.22000000    30.53000000
   C     40.87000000    53.08000000    31.85000000
   C     40.49000000    51.64000000    32.19000000
   O     40.20000000    50.90000000    31.26000000
   C     39.65000000    54.00000000    31.94000000
   C     38.61000000    54.01000000    30.83000000
   O     38.70000000    53.22000000    29.87000000
   O     37.77000000    54.93000000    30.98000000
   H     40.91000000    53.45000000    29.71000000
   H     41.56000000    53.39000000    32.63000000
   H     40.01000000    55.03000000    31.99000000
   H     39.14000000    53.92000000    32.90000000
   N     40.37000000    51.25000000    33.46000000
   C     39.52000000    50.12000000    33.78000000
   C     38.06000000    50.47000000    33.48000000
   O     37.71000000    51.64000000    33.44000000
   H     40.56000000    51.87000000    34.24000000
   H     39.70000000    50.07000000    34.86000000
   H     39.80000000    49.19000000    33.30000000
   N     37.21000000    49.45000000    33.31000000
   C     35.77000000    49.59000000    33.34000000
   C     35.14000000    48.46000000    34.15000000
   O     35.84000000    47.57000000    34.63000000
   C     35.25000000    49.72000000    31.91000000
   C     35.84000000    50.93000000    31.21000000
   N     35.15000000    52.07000000    31.29000000
   O     36.87000000    50.91000000    30.54000000
   H     37.59000000    48.57000000    33.00000000
   H     35.51000000    50.39000000    34.04000000
   H     34.18000000    49.92000000    31.90000000
   H     35.46000000    48.78000000    31.40000000
   H     34.37000000    52.06000000    31.94000000
   H     35.67000000    52.86000000    30.95000000
   N     33.81000000    48.48000000    34.29000000
   C     32.97000000    47.46000000    34.87000000
   C     33.45000000    46.68000000    36.09000000
   O     33.68000000    45.47000000    35.99000000
   H     33.42000000    49.37000000    34.01000000
   H     32.81000000    46.77000000    34.05000000
   H     32.00000000    47.81000000    35.22000000
   N     33.62000000    47.25000000    37.28000000
   C     33.06000000    48.49000000    37.78000000
   C     34.04000000    49.31000000    38.60000000
   O     33.67000000    50.45000000    38.85000000
   C     31.91000000    48.10000000    38.71000000
   C     30.81000000    47.28000000    38.05000000
   O     32.27000000    47.41000000    39.89000000
   H     33.98000000    46.63000000    37.99000000
   H     32.61000000    49.07000000    36.98000000
   H     31.37000000    49.00000000    39.02000000
   H     31.70000000    47.89000000    40.50000000
   H     30.48000000    47.89000000    37.21000000
   H     31.25000000    46.36000000    37.66000000
   H     30.01000000    47.02000000    38.74000000
   N     35.28000000    48.91000000    38.91000000
   C     36.31000000    49.73000000    39.52000000
   C     35.86000000    50.50000000    40.75000000
   O     35.69000000    51.72000000    40.77000000
   C     37.00000000    50.67000000    38.53000000
   C     37.28000000    50.02000000    37.18000000
   C     38.34000000    51.09000000    39.12000000
   C     37.93000000    48.63000000    37.16000000
   H     35.46000000    47.92000000    38.89000000
   H     37.10000000    49.09000000    39.89000000
   H     36.35000000    51.52000000    38.31000000
   H     37.89000000    50.68000000    36.56000000
   H     36.32000000    49.94000000    36.67000000
   H     38.19000000    51.71000000    40.01000000
   H     38.95000000    50.25000000    39.46000000
   H     38.79000000    51.79000000    38.41000000
   H     38.69000000    48.56000000    37.93000000
   H     37.22000000    47.83000000    37.35000000
   H     38.35000000    48.43000000    36.17000000
   N     35.63000000    49.86000000    41.90000000
   C     35.73000000    48.44000000    42.17000000
   C     37.10000000    48.00000000    42.66000000
   O     37.61000000    46.94000000    42.29000000
   C     34.71000000    48.02000000    43.22000000
   C     34.62000000    48.87000000    44.49000000
   O     34.35000000    48.19000000    45.50000000
   O     34.98000000    50.06000000    44.55000000
   H     35.33000000    50.40000000    42.70000000
   H     35.48000000    47.79000000    41.33000000
   H     34.96000000    47.00000000    43.50000000
   H     33.74000000    48.01000000    42.73000000
   N     37.79000000    48.92000000    43.34000000
   C     39.14000000    48.85000000    43.89000000
   C     39.19000000    48.40000000    45.34000000
   O     38.27000000    48.69000000    46.11000000
   C     39.86000000    50.19000000    43.78000000
   C     39.32000000    51.32000000    44.61000000
   C     39.86000000    51.57000000    45.88000000
   C     38.23000000    52.06000000    44.14000000
   C     39.36000000    52.66000000    46.59000000
   C     37.74000000    53.15000000    44.87000000
   C     38.31000000    53.46000000    46.11000000
   H     37.12000000    49.56000000    43.73000000
   H     39.64000000    48.15000000    43.22000000
   H     39.73000000    50.37000000    42.71000000
   H     40.93000000    50.12000000    43.96000000
   H     40.66000000    50.96000000    46.29000000
   H     37.73000000    51.89000000    43.20000000
   H     39.74000000    52.85000000    47.59000000
   H     36.87000000    53.70000000    44.53000000
   H     37.86000000    54.28000000    46.64000000
   N     40.37000000    47.96000000    45.78000000
   C     41.54000000    47.54000000    45.05000000
   C     41.28000000    46.40000000    44.07000000
   O     40.19000000    45.83000000    44.03000000
   C     42.45000000    47.08000000    46.18000000
   C     42.17000000    48.08000000    47.29000000
   C     40.65000000    47.96000000    47.21000000
   H     42.07000000    48.36000000    44.56000000
   H     42.31000000    46.03000000    46.44000000
   H     43.51000000    47.12000000    45.91000000
   H     42.60000000    47.81000000    48.25000000
   H     42.50000000    49.06000000    46.93000000
   H     40.22000000    47.07000000    47.66000000
   H     40.19000000    48.84000000    47.64000000
   N     42.30000000    45.97000000    43.33000000
   C     42.16000000    45.07000000    42.20000000
   C     42.94000000    45.38000000    40.93000000
   O     43.26000000    44.50000000    40.13000000
   C     42.52000000    43.68000000    42.70000000
   C     41.55000000    42.67000000    42.09000000
   C     41.66000000    41.28000000    42.70000000
   O     40.70000000    40.83000000    43.35000000
   O     42.62000000    40.52000000    42.43000000
   H     43.13000000    46.54000000    43.45000000
   H     41.11000000    45.04000000    41.93000000
   H     42.39000000    43.63000000    43.78000000
   H     43.58000000    43.45000000    42.55000000
   H     41.72000000    42.58000000    41.02000000
   H     40.50000000    42.95000000    42.23000000
   N     43.28000000    46.61000000    40.52000000
   C     42.70000000    47.89000000    40.84000000
   H     41.72300000    47.74100000    41.30000000
   H     43.35100000    48.42100000    41.53500000
   H     42.58600000    48.47600000    39.92800000
   H     43.79000000    46.66000000    39.65000000
  Ca     38.96000000    50.59000000    29.05000000
   O     39.45000000    49.32000000    26.65000000
   H     40.08000000    48.61000000    26.55000000
   H     39.75000000    49.99000000    26.02000000
   O     41.63000000    49.92000000    28.78000000
   H     41.99000000    50.31000000    27.98000000
   H     42.26000000    49.23000000    29.00000000
   O     37.67000000    51.94000000    27.28000000
   H     36.97000000    52.59000000    27.32000000
   H     37.75000000    51.73000000    26.35000000
   O     36.75000000    49.07000000    28.27000000
   H     35.99000000    49.61000000    28.52000000
   H     36.49000000    48.18000000    28.50000000
   O     39.45000000    48.30000000    30.33000000
   H     38.90000000    47.75000000    30.89000000
   H     40.33000000    47.97000000    30.48000000

Ca 1.00



