%chk=loop3.apoCaM-CA-Ng.Init31.run20.water6.chk
%nprocshared=20
%mem=10GB
%nosave
#b3lyp/svp scf=(tight,noincore,xqc) Test 
#IOP(5/87=12) Density=Current Pop=(MK,readradii) iop(6/33=2) iop(6/42=6)

loop3.apoCaM-CA-Ng.Init31.run20.water6 

   0  1 
   C     92.53000000    74.91000000    23.06000000
   C     93.99000000    74.57000000    22.79000000
   O     94.45000000    73.43000000    22.82000000
   H     91.91200000    74.03400000    22.86500000
   H     92.41300000    75.21300000    24.10100000
   H     92.21900000    75.72600000    22.40700000
   N     94.81000000    75.60000000    22.58000000
   C     96.16000000    75.44000000    22.08000000
   C     97.11000000    75.26000000    23.26000000
   O     97.59000000    74.13000000    23.33000000
   C     96.58000000    76.56000000    21.13000000
   C     96.20000000    77.98000000    21.51000000
   O     95.65000000    78.29000000    22.59000000
   O     96.47000000    78.83000000    20.63000000
   H     94.41000000    76.53000000    22.58000000
   H     96.16000000    74.54000000    21.48000000
   H     96.06000000    76.36000000    20.19000000
   H     97.66000000    76.55000000    20.96000000
   N     97.29000000    76.27000000    24.11000000
   C     98.10000000    76.14000000    25.30000000
   C     99.55000000    76.35000000    24.89000000
   O    100.04000000    77.48000000    24.82000000
   C     97.70000000    77.04000000    26.47000000
   C     98.25000000    76.57000000    27.81000000
   C     97.90000000    77.43000000    29.03000000
   C     96.44000000    77.83000000    29.12000000
   N     96.13000000    78.69000000    30.28000000
   H     96.96000000    77.19000000    23.86000000
   H     98.01000000    75.14000000    25.71000000
   H     96.61000000    77.11000000    26.40000000
   H     98.14000000    78.03000000    26.34000000
   H     99.33000000    76.42000000    27.82000000
   H     97.79000000    75.61000000    28.02000000
   H     98.52000000    78.33000000    29.00000000
   H     98.25000000    76.76000000    29.82000000
   H     95.92000000    76.89000000    29.26000000
   H     96.21000000    78.29000000    28.16000000
   H     96.21000000    78.14000000    31.12000000
   H     96.73000000    79.50000000    30.34000000
   H     95.22000000    79.12000000    30.21000000
   N    100.24000000    75.23000000    24.65000000
   C    101.54000000    75.18000000    24.02000000
   C    101.67000000    74.16000000    22.90000000
   O    102.77000000    73.92000000    22.40000000
   C    102.53000000    74.88000000    25.14000000
   C    102.28000000    73.66000000    26.00000000
   O    101.50000000    72.78000000    25.57000000
   O    102.89000000    73.44000000    27.07000000
   H     99.72000000    74.40000000    24.89000000
   H    101.71000000    76.19000000    23.65000000
   H    102.53000000    75.71000000    25.85000000
   H    103.53000000    74.80000000    24.71000000
   N    100.55000000    73.54000000    22.51000000
   C    100.51000000    72.64000000    21.37000000
   C    100.42000000    73.41000000    20.06000000
   O     99.79000000    74.46000000    19.99000000
   H     99.64000000    73.75000000    22.90000000
   H     99.60000000    72.04000000    21.43000000
   H    101.44000000    72.08000000    21.45000000
   N    100.86000000    72.79000000    18.96000000
   C    101.11000000    71.37000000    18.78000000
   C     99.93000000    70.61000000    18.19000000
   O     99.23000000    71.13000000    17.32000000
   C    102.26000000    71.26000000    17.79000000
   C    102.78000000    69.83000000    17.75000000
   N    103.77000000    69.44000000    18.56000000
   O    102.17000000    69.02000000    17.06000000
   H    100.81000000    73.34000000    18.12000000
   H    101.32000000    70.92000000    19.75000000
   H    103.03000000    71.98000000    18.08000000
   H    102.01000000    71.65000000    16.80000000
   H    104.13000000    70.06000000    19.27000000
   H    103.99000000    68.45000000    18.62000000
   N     99.68000000    69.37000000    18.60000000
   C    100.38000000    68.49000000    19.52000000
   C     99.92000000    68.32000000    20.96000000
   O     99.03000000    69.03000000    21.42000000
   H     98.86000000    69.00000000    18.14000000
   H    101.39000000    68.88000000    19.68000000
   H    100.50000000    67.52000000    19.03000000
   N    100.31000000    67.21000000    21.59000000
   C     99.76000000    66.68000000    22.82000000
   C    100.71000000    66.51000000    24.00000000
   O    101.92000000    66.42000000    23.77000000
   C     98.91000000    65.46000000    22.52000000
   C     97.65000000    65.78000000    21.75000000
   C     96.70000000    66.71000000    22.21000000
   C     97.53000000    65.20000000    20.48000000
   C     95.60000000    67.05000000    21.41000000
   C     96.41000000    65.49000000    19.70000000
   C     95.49000000    66.46000000    20.14000000
   O     94.39000000    66.73000000    19.38000000
   H    101.08000000    66.77000000    21.10000000
   H     99.05000000    67.40000000    23.22000000
   H     98.56000000    65.06000000    23.48000000
   H     99.53000000    64.73000000    22.00000000
   H     96.80000000    67.20000000    23.16000000
   H     98.28000000    64.57000000    20.04000000
   H     94.86000000    67.75000000    21.79000000
   H     96.24000000    64.93000000    18.79000000
   H     94.26000000    66.18000000    18.60000000
   N    100.18000000    66.33000000    25.21000000
   C    100.98000000    65.98000000    26.36000000
   C    100.77000000    64.53000000    26.78000000
   O    101.37000000    63.98000000    27.70000000
   C    100.74000000    67.02000000    27.45000000
   C     99.27000000    67.11000000    27.86000000
   C    101.73000000    66.67000000    28.56000000
   C     99.07000000    68.25000000    28.86000000
   H     99.17000000    66.43000000    25.24000000
   H    102.01000000    66.04000000    26.02000000
   H    101.10000000    67.96000000    27.04000000
   H     98.96000000    66.22000000    28.40000000
   H     98.51000000    67.21000000    27.08000000
   H    102.60000000    66.26000000    28.05000000
   H    102.11000000    67.52000000    29.12000000
   H    101.37000000    65.88000000    29.23000000
   H     98.02000000    68.39000000    29.12000000
   H     99.61000000    68.03000000    29.78000000
   H     99.47000000    69.16000000    28.42000000
   N     99.93000000    63.75000000    26.10000000
   C     99.60000000    62.37000000    26.41000000
   C     98.77000000    62.16000000    27.67000000
   O     98.53000000    61.02000000    28.06000000
   C     99.00000000    61.70000000    25.18000000
   O     99.92000000    61.85000000    24.12000000
   H     99.42000000    64.22000000    25.37000000
   H    100.57000000    61.89000000    26.52000000
   H     98.02000000    62.07000000    24.89000000
   H     99.04000000    60.63000000    25.38000000
   H     99.51000000    61.41000000    23.37000000
   N     98.35000000    63.17000000    28.43000000
   C     97.05000000    63.03000000    29.06000000
   C     96.17000000    64.27000000    29.15000000
   O     96.62000000    65.41000000    29.00000000
   C     97.31000000    62.52000000    30.47000000
   H     98.34000000    64.07000000    27.98000000
   H     96.51000000    62.25000000    28.53000000
   H     98.09000000    61.76000000    30.56000000
   H     97.46000000    63.26000000    31.25000000
   H     96.37000000    62.10000000    30.82000000
   N     94.88000000    63.97000000    29.26000000
   C     93.75000000    64.89000000    29.36000000
   C     93.69000000    66.14000000    28.50000000
   O     93.36000000    67.16000000    29.11000000
   C     93.51000000    65.00000000    30.86000000
   H     94.65000000    63.02000000    29.00000000
   H     92.86000000    64.37000000    29.00000000
   H     92.65000000    65.64000000    31.05000000
   H     93.32000000    63.96000000    31.11000000
   H     94.36000000    65.47000000    31.35000000
   N     93.91000000    66.18000000    27.19000000
   C     93.65000000    67.32000000    26.33000000
   C     92.40000000    67.17000000    25.48000000
   O     92.07000000    68.14000000    24.81000000
   C     94.87000000    67.73000000    25.51000000
   C     96.04000000    68.21000000    26.36000000
   C     95.82000000    69.57000000    27.00000000
   O     96.43000000    70.53000000    26.47000000
   O     95.10000000    69.70000000    28.01000000
   H     94.24000000    65.31000000    26.79000000
   H     93.40000000    68.14000000    27.02000000
   H     94.68000000    68.55000000    24.81000000
   H     95.21000000    66.85000000    24.96000000
   H     96.85000000    68.21000000    25.63000000
   H     96.22000000    67.47000000    27.14000000
   N     91.73000000    66.01000000    25.55000000
   C     90.44000000    65.58000000    25.06000000
   H     89.73600000    66.41100000    25.11400000
   H     90.53500000    65.25200000    24.02500000
   H     90.07500000    64.75500000    25.67200000
   H     92.31000000    65.29000000    25.94000000
  Ca     96.24000000    71.93000000    24.24000000
   O     98.86000000    72.38000000    25.35000000
   H     99.80000000    72.48000000    25.48000000
   H     98.49000000    72.46000000    26.23000000
   O     94.18000000    70.47000000    23.27000000
   H     93.92000000    70.10000000    22.43000000
   H     93.35000000    70.70000000    23.70000000
   O     97.72000000    69.84000000    23.63000000
   H     97.77000000    69.49000000    22.74000000
   H     98.58000000    69.64000000    24.01000000
   O     96.42000000    73.52000000    26.30000000
   H     96.38000000    72.95000000    27.07000000
   H     95.78000000    74.21000000    26.47000000
   O     94.03000000    71.98000000    25.84000000
   H     93.16000000    72.11000000    25.45000000
   H     93.89000000    71.34000000    26.53000000
   O     97.00000000    71.75000000    21.56000000
   H     96.44000000    71.09000000    21.14000000
   H     97.63000000    72.00000000    20.88000000

Ca 1.00



