%chk=loop1.apoCaM-CA-Ng.Init293.run44.water6.chk
%nprocshared=20
%mem=10GB
%nosave
#b3lyp/svp scf=(tight,noincore,xqc) Test 
#IOP(5/87=12) Density=Current Pop=(MK,readradii) iop(6/33=2) iop(6/42=6)

loop1.apoCaM-CA-Ng.Init293.run44.water6 

   0  1 
   C     44.31000000    76.01000000    20.41000000
   C     44.84000000    75.07000000    21.48000000
   O     45.99000000    74.65000000    21.48000000
   H     43.41200000    76.50700000    20.77600000
   H     45.06800000    76.75700000    20.17500000
   H     44.06900000    75.44100000    19.51200000
   N     44.02000000    74.62000000    22.44000000
   C     44.36000000    73.79000000    23.59000000
   C     44.65000000    72.32000000    23.30000000
   O     44.85000000    71.55000000    24.23000000
   C     43.25000000    73.84000000    24.64000000
   C     41.85000000    73.84000000    24.05000000
   O     41.37000000    74.92000000    23.65000000
   O     41.19000000    72.78000000    24.13000000
   H     43.09000000    74.99000000    22.37000000
   H     45.26000000    74.21000000    24.02000000
   H     43.35000000    74.77000000    25.20000000
   H     43.29000000    73.06000000    25.40000000
   N     44.62000000    71.78000000    22.08000000
   C     44.63000000    70.37000000    21.77000000
   C     46.05000000    69.83000000    21.62000000
   O     46.75000000    70.35000000    20.76000000
   C     43.80000000    70.10000000    20.52000000
   C     42.30000000    69.92000000    20.70000000
   C     41.66000000    71.15000000    21.34000000
   C     40.20000000    70.76000000    21.58000000
   N     39.43000000    71.91000000    22.09000000
   H     44.53000000    72.48000000    21.35000000
   H     44.16000000    69.89000000    22.63000000
   H     44.10000000    69.18000000    20.03000000
   H     43.91000000    70.89000000    19.77000000
   H     42.13000000    68.98000000    21.24000000
   H     41.97000000    69.79000000    19.67000000
   H     41.87000000    72.02000000    20.73000000
   H     42.07000000    71.33000000    22.33000000
   H     40.19000000    69.99000000    22.35000000
   H     39.74000000    70.44000000    20.64000000
   H     39.80000000    72.28000000    22.95000000
   H     39.45000000    72.59000000    21.34000000
   H     38.52000000    71.54000000    22.34000000
   N     46.65000000    68.84000000    22.29000000
   C     46.19000000    68.14000000    23.47000000
   C     47.43000000    67.76000000    24.27000000
   O     47.89000000    66.63000000    24.42000000
   C     45.41000000    66.88000000    23.13000000
   C     45.77000000    65.88000000    22.05000000
   O     46.45000000    66.15000000    21.03000000
   O     45.43000000    64.68000000    22.20000000
   H     47.62000000    68.69000000    22.07000000
   H     45.54000000    68.78000000    24.06000000
   H     44.43000000    67.29000000    22.90000000
   H     45.18000000    66.30000000    24.03000000
   N     48.08000000    68.77000000    24.86000000
   C     48.24000000    70.14000000    24.42000000
   C     49.28000000    71.05000000    25.05000000
   O     50.01000000    70.61000000    25.93000000
   H     48.79000000    68.41000000    25.48000000
   H     47.30000000    70.65000000    24.64000000
   H     48.25000000    70.16000000    23.33000000
   N     49.44000000    72.34000000    24.75000000
   C     48.62000000    73.16000000    23.88000000
   C     48.29000000    74.55000000    24.41000000
   O     48.91000000    74.97000000    25.39000000
   C     49.22000000    73.31000000    22.48000000
   C     50.71000000    73.56000000    22.38000000
   O     51.14000000    73.38000000    21.22000000
   O     51.38000000    73.97000000    23.36000000
   H     50.14000000    72.84000000    25.29000000
   H     47.66000000    72.71000000    23.65000000
   H     48.67000000    74.12000000    22.01000000
   H     49.00000000    72.43000000    21.86000000
   N     47.36000000    75.30000000    23.80000000
   C     47.12000000    76.70000000    24.04000000
   C     48.21000000    77.63000000    23.53000000
   O     48.55000000    78.64000000    24.14000000
   H     46.83000000    74.88000000    23.05000000
   H     47.08000000    76.89000000    25.12000000
   H     46.16000000    76.95000000    23.59000000
   N     48.82000000    77.25000000    22.41000000
   C     49.72000000    78.04000000    21.59000000
   C     49.48000000    77.74000000    20.12000000
   O     49.02000000    76.64000000    19.81000000
   C     51.21000000    77.92000000    21.87000000
   C     51.60000000    78.02000000    23.34000000
   O     51.91000000    79.01000000    21.30000000
   H     48.48000000    76.42000000    21.94000000
   H     49.39000000    79.07000000    21.71000000
   H     51.59000000    76.99000000    21.44000000
   H     52.82000000    78.81000000    21.53000000
   H     51.38000000    77.15000000    23.95000000
   H     52.66000000    78.24000000    23.44000000
   H     51.04000000    78.79000000    23.87000000
   N     49.75000000    78.69000000    19.22000000
   C     49.54000000    78.56000000    17.79000000
   C     50.72000000    78.96000000    16.92000000
   O     51.07000000    80.13000000    17.01000000
   C     48.31000000    79.39000000    17.42000000
   C     47.95000000    79.40000000    15.94000000
   C     48.20000000    80.82000000    17.93000000
   C     47.41000000    78.08000000    15.40000000
   H     50.14000000    79.60000000    19.42000000
   H     49.33000000    77.53000000    17.51000000
   H     47.42000000    78.90000000    17.80000000
   H     48.88000000    79.65000000    15.43000000
   H     47.12000000    80.10000000    15.82000000
   H     47.30000000    81.22000000    17.46000000
   H     48.02000000    80.75000000    19.00000000
   H     48.98000000    81.52000000    17.63000000
   H     47.62000000    77.89000000    14.35000000
   H     47.72000000    77.25000000    16.04000000
   H     46.32000000    78.12000000    15.46000000
   N     51.24000000    78.12000000    16.03000000
   C     52.53000000    78.34000000    15.39000000
   C     52.71000000    77.98000000    13.92000000
   O     53.50000000    78.53000000    13.17000000
   C     53.68000000    77.63000000    16.10000000
   C     53.54000000    76.11000000    16.19000000
   O     53.70000000    78.12000000    17.42000000
   H     50.85000000    77.19000000    15.94000000
   H     52.69000000    79.41000000    15.47000000
   H     54.64000000    77.73000000    15.60000000
   H     53.82000000    79.07000000    17.35000000
   H     52.58000000    75.78000000    16.57000000
   H     53.51000000    75.79000000    15.14000000
   H     54.33000000    75.69000000    16.81000000
   N     51.82000000    77.13000000    13.40000000
   C     51.64000000    76.57000000    12.07000000
   C     52.83000000    75.68000000    11.73000000
   O     53.85000000    75.69000000    12.42000000
   C     51.22000000    77.62000000    11.05000000
   C     50.06000000    78.51000000    11.48000000
   O     50.88000000    77.07000000     9.80000000
   H     51.13000000    76.72000000    14.01000000
   H     50.74000000    75.99000000    12.25000000
   H     52.04000000    78.29000000    10.78000000
   H     50.00000000    77.39000000     9.57000000
   H     50.30000000    79.00000000    12.42000000
   H     49.88000000    79.36000000    10.82000000
   H     49.25000000    77.81000000    11.68000000
   N     52.68000000    74.86000000    10.69000000
   C     53.67000000    73.87000000    10.31000000
   C     53.49000000    72.46000000    10.87000000
   O     54.46000000    71.70000000    10.90000000
   C     53.79000000    73.71000000     8.80000000
   C     54.11000000    74.98000000     8.02000000
   C     55.56000000    75.34000000     8.33000000
   C     56.01000000    76.43000000     7.36000000
   N     55.25000000    77.66000000     7.60000000
   H     51.80000000    74.81000000    10.20000000
   H     54.59000000    74.25000000    10.75000000
   H     52.86000000    73.23000000     8.50000000
   H     54.50000000    72.92000000     8.56000000
   H     53.44000000    75.82000000     8.18000000
   H     54.13000000    74.72000000     6.96000000
   H     56.25000000    74.50000000     8.29000000
   H     55.61000000    75.71000000     9.35000000
   H     55.78000000    76.09000000     6.35000000
   H     57.09000000    76.57000000     7.37000000
   H     55.14000000    77.90000000     8.58000000
   H     55.59000000    78.46000000     7.09000000
   H     54.36000000    77.54000000     7.13000000
   N     52.46000000    71.89000000    11.49000000
   C     51.13000000    72.24000000    11.94000000
   C     50.31000000    72.95000000    10.87000000
   O     49.82000000    74.07000000    10.94000000
   C     51.24000000    72.87000000    13.33000000
   C     51.94000000    72.02000000    14.39000000
   C     51.83000000    72.36000000    15.87000000
   O     50.87000000    73.09000000    16.21000000
   O     52.68000000    71.89000000    16.65000000
   H     52.72000000    70.97000000    11.81000000
   H     50.68000000    71.27000000    12.17000000
   H     50.28000000    73.28000000    13.65000000
   H     51.77000000    73.82000000    13.31000000
   H     52.93000000    71.66000000    14.10000000
   H     51.33000000    71.12000000    14.34000000
   N     50.08000000    72.24000000     9.76000000
   C     49.13000000    72.59000000     8.72000000
   H     48.26000000    73.06900000     9.16900000
   H     49.59900000    73.27700000     8.01500000
   H     48.81600000    71.68800000     8.19500000
   H     50.49000000    71.33000000     9.62000000
  Ca     50.80000000    72.61000000    18.80000000
   O     52.63000000    70.67000000    19.58000000
   H     52.62000000    69.71000000    19.65000000
   H     53.52000000    70.88000000    19.28000000
   O     48.37000000    71.77000000    17.45000000
   H     47.52000000    72.02000000    17.80000000
   H     48.23000000    71.70000000    16.50000000
   O     48.23000000    73.72000000    19.51000000
   H     47.97000000    74.53000000    19.95000000
   H     47.41000000    73.38000000    19.15000000
   O     53.29000000    73.66000000    19.25000000
   H     54.09000000    73.49000000    18.75000000
   H     53.60000000    73.86000000    20.13000000
   O     49.60000000    70.60000000    20.11000000
   H     50.18000000    70.19000000    20.75000000
   H     48.72000000    70.44000000    20.44000000
   O     50.86000000    75.20000000    18.76000000
   H     50.25000000    75.59000000    19.40000000
   H     51.60000000    75.80000000    18.73000000

Ca 1.00



