%chk=loop3.apoCaM-CA-Ng.Init295.run50.water3.chk
%nprocshared=20
%mem=10GB
%nosave
#b3lyp/svp scf=(tight,noincore,xqc) Test 
#IOP(5/87=12) Density=Current Pop=(MK,readradii) iop(6/33=2) iop(6/42=6)

loop3.apoCaM-CA-Ng.Init295.run50.water3 

   0  1 
   C     88.26000000    38.37000000    39.90000000
   C     89.10000000    37.33000000    40.63000000
   O     90.23000000    37.58000000    41.02000000
   H     87.34700000    38.56000000    40.46400000
   H     88.82800000    39.29600000    39.80700000
   H     88.00300000    37.99900000    38.90800000
   N     88.57000000    36.13000000    40.86000000
   C     89.22000000    34.97000000    41.44000000
   C     90.36000000    34.44000000    40.59000000
   O     90.20000000    34.46000000    39.37000000
   C     88.09000000    33.97000000    41.59000000
   C     88.53000000    32.67000000    42.25000000
   O     88.29000000    32.44000000    43.46000000
   O     89.12000000    31.83000000    41.54000000
   H     87.69000000    35.98000000    40.39000000
   H     89.62000000    35.25000000    42.42000000
   H     87.64000000    33.79000000    40.61000000
   H     87.33000000    34.41000000    42.24000000
   N     91.37000000    33.84000000    41.23000000
   C     92.54000000    33.24000000    40.61000000
   C     92.22000000    32.21000000    39.54000000
   O     92.92000000    32.18000000    38.53000000
   C     93.45000000    32.69000000    41.70000000
   C     94.81000000    32.28000000    41.15000000
   C     95.73000000    31.92000000    42.32000000
   C     96.98000000    31.20000000    41.83000000
   N     97.86000000    31.99000000    40.95000000
   H     91.36000000    33.89000000    42.24000000
   H     93.06000000    34.07000000    40.13000000
   H     93.02000000    31.79000000    42.14000000
   H     93.60000000    33.48000000    42.44000000
   H     95.24000000    33.04000000    40.50000000
   H     94.76000000    31.39000000    40.52000000
   H     95.09000000    31.28000000    42.92000000
   H     96.00000000    32.78000000    42.93000000
   H     96.51000000    30.36000000    41.33000000
   H     97.48000000    30.70000000    42.65000000
   H     97.37000000    32.14000000    40.08000000
   H     98.11000000    32.89000000    41.34000000
   H     98.68000000    31.47000000    40.69000000
   N     91.17000000    31.40000000    39.71000000
   C     90.80000000    30.44000000    38.68000000
   C     89.51000000    30.85000000    37.98000000
   O     89.06000000    30.11000000    37.11000000
   C     90.81000000    29.05000000    39.32000000
   C     90.12000000    28.94000000    40.67000000
   O     88.87000000    28.83000000    40.70000000
   O     90.79000000    28.86000000    41.72000000
   H     90.60000000    31.41000000    40.55000000
   H     91.56000000    30.34000000    37.91000000
   H     91.87000000    28.84000000    39.47000000
   H     90.45000000    28.30000000    38.61000000
   N     88.90000000    32.01000000    38.24000000
   C     87.64000000    32.48000000    37.69000000
   C     86.43000000    31.85000000    38.37000000
   O     85.31000000    32.34000000    38.25000000
   H     89.42000000    32.59000000    38.87000000
   H     87.62000000    32.28000000    36.62000000
   H     87.68000000    33.56000000    37.83000000
   N     86.55000000    30.74000000    39.10000000
   C     85.50000000    30.11000000    39.88000000
   C     85.55000000    30.75000000    41.26000000
   O     86.50000000    30.55000000    42.01000000
   C     85.83000000    28.63000000    39.76000000
   C     84.70000000    27.89000000    40.45000000
   N     83.55000000    27.65000000    39.81000000
   O     84.87000000    27.52000000    41.61000000
   H     87.43000000    30.24000000    39.18000000
   H     84.58000000    30.35000000    39.35000000
   H     86.66000000    28.37000000    40.42000000
   H     86.03000000    28.35000000    38.72000000
   H     83.69000000    27.56000000    38.81000000
   H     82.81000000    27.10000000    40.23000000
   N     84.42000000    31.37000000    41.62000000
   C     84.33000000    32.09000000    42.87000000
   C     84.67000000    31.41000000    44.19000000
   O     84.67000000    32.13000000    45.19000000
   H     83.71000000    31.49000000    40.92000000
   H     83.28000000    32.38000000    42.91000000
   H     84.82000000    33.06000000    42.87000000
   N     84.97000000    30.12000000    44.35000000
   C     85.16000000    29.50000000    45.64000000
   C     86.57000000    29.64000000    46.21000000
   O     87.53000000    29.49000000    45.47000000
   C     84.74000000    28.04000000    45.70000000
   C     83.27000000    27.70000000    45.79000000
   C     82.60000000    27.22000000    44.66000000
   C     82.54000000    27.96000000    46.96000000
   C     81.24000000    26.89000000    44.75000000
   C     81.18000000    27.65000000    47.04000000
   C     80.51000000    27.07000000    45.94000000
   O     79.19000000    26.73000000    46.05000000
   H     84.87000000    29.50000000    43.55000000
   H     84.49000000    30.07000000    46.29000000
   H     85.16000000    27.70000000    46.65000000
   H     85.25000000    27.50000000    44.90000000
   H     83.13000000    27.08000000    43.73000000
   H     82.97000000    28.37000000    47.86000000
   H     80.79000000    26.48000000    43.86000000
   H     80.61000000    27.76000000    47.96000000
   H     78.79000000    26.92000000    46.90000000
   N     86.68000000    29.80000000    47.53000000
   C     87.91000000    29.81000000    48.31000000
   C     88.78000000    28.57000000    48.42000000
   O     88.91000000    27.80000000    47.47000000
   C     88.68000000    31.12000000    48.24000000
   C     87.74000000    32.33000000    48.27000000
   C     89.49000000    31.33000000    46.97000000
   C     88.42000000    33.66000000    48.58000000
   H     85.84000000    29.97000000    48.06000000
   H     87.38000000    29.90000000    49.26000000
   H     89.36000000    31.19000000    49.09000000
   H     86.99000000    32.29000000    49.06000000
   H     87.20000000    32.33000000    47.32000000
   H     88.91000000    31.64000000    46.11000000
   H     90.33000000    32.01000000    47.16000000
   H     89.92000000    30.38000000    46.66000000
   H     89.08000000    33.89000000    47.75000000
   H     87.62000000    34.39000000    48.49000000
   H     88.87000000    33.77000000    49.57000000
   N     89.49000000    28.36000000    49.53000000
   C     90.56000000    27.39000000    49.67000000
   C     90.94000000    26.84000000    51.04000000
   O     91.82000000    25.98000000    51.11000000
   C     91.79000000    28.06000000    49.07000000
   O     92.21000000    29.18000000    49.83000000
   H     89.43000000    29.05000000    50.27000000
   H     90.29000000    26.56000000    49.02000000
   H     91.65000000    28.41000000    48.05000000
   H     92.60000000    27.33000000    48.99000000
   H     92.83000000    29.75000000    49.38000000
   N     90.55000000    27.43000000    52.17000000
   C     90.88000000    27.19000000    53.56000000
   C     92.32000000    26.79000000    53.87000000
   O     92.61000000    25.75000000    54.46000000
   C     89.91000000    26.16000000    54.12000000
   H     90.06000000    28.29000000    51.97000000
   H     90.68000000    28.13000000    54.07000000
   H     88.88000000    26.51000000    54.00000000
   H     90.05000000    25.32000000    53.44000000
   H     90.10000000    25.85000000    55.15000000
   N     93.27000000    27.68000000    53.59000000
   C     93.34000000    29.02000000    53.05000000
   C     93.42000000    30.09000000    54.13000000
   O     94.05000000    29.85000000    55.15000000
   C     94.52000000    29.09000000    52.09000000
   H     94.15000000    27.31000000    53.94000000
   H     92.49000000    29.29000000    52.42000000
   H     95.44000000    28.83000000    52.60000000
   H     94.43000000    28.30000000    51.35000000
   H     94.53000000    30.04000000    51.55000000
   N     92.97000000    31.34000000    53.97000000
   C     92.21000000    31.89000000    52.86000000
   C     91.12000000    32.77000000    53.46000000
   O     90.08000000    32.85000000    52.81000000
   C     93.11000000    32.75000000    51.98000000
   C     92.42000000    33.51000000    50.86000000
   C     93.47000000    34.25000000    50.04000000
   O     93.82000000    33.85000000    48.91000000
   O     93.90000000    35.37000000    50.38000000
   H     93.13000000    32.01000000    54.71000000
   H     91.76000000    31.13000000    52.22000000
   H     93.86000000    32.05000000    51.60000000
   H     93.54000000    33.49000000    52.65000000
   H     91.81000000    34.27000000    51.34000000
   H     91.80000000    32.84000000    50.25000000
   N     91.29000000    33.43000000    54.61000000
   C     90.24000000    34.16000000    55.30000000
   H     89.33800000    33.54900000    55.33800000
   H     90.56400000    34.39200000    56.31400000
   H     90.02800000    35.08600000    54.76500000
   H     92.20000000    33.44000000    55.05000000
  Ca     88.78000000    29.89000000    43.19000000
   O     90.30000000    28.07000000    45.10000000
   H     90.81000000    27.27000000    44.96000000
   H     89.76000000    27.88000000    45.87000000
   O     87.59000000    27.51000000    42.89000000
   H     87.73000000    26.58000000    43.08000000
   H     86.98000000    27.51000000    42.15000000
   O     90.96000000    31.30000000    44.22000000
   H     91.71000000    30.97000000    44.72000000
   H     91.00000000    32.25000000    44.32000000

Ca 1.00



