%chk=loop2.apoCaM-CA-Ng.Init293.run24.water8.chk
%nprocshared=20
%mem=10GB
%nosave
#b3lyp/svp scf=(tight,noincore,xqc) Test 
#IOP(5/87=12) Density=Current Pop=(MK,readradii) iop(6/33=2) iop(6/42=6)

loop2.apoCaM-CA-Ng.Init293.run24.water8 

   -2  1 
   C     65.19000000   -21.11000000    27.11000000
   C     66.03000000   -21.89000000    28.11000000
   O     66.87000000   -21.31000000    28.79000000
   H     64.28800000   -20.74400000    27.60100000
   H     65.76500000   -20.26500000    26.73200000
   H     64.91300000   -21.76100000    26.28100000
   N     65.71000000   -23.14000000    28.45000000
   C     66.08000000   -23.86000000    29.65000000
   C     67.56000000   -24.17000000    29.50000000
   O     68.34000000   -24.07000000    30.45000000
   C     65.24000000   -25.11000000    29.89000000
   C     65.75000000   -25.99000000    31.02000000
   O     66.09000000   -27.16000000    30.75000000
   O     65.99000000   -25.56000000    32.17000000
   H     65.01000000   -23.54000000    27.84000000
   H     65.89000000   -23.18000000    30.48000000
   H     65.25000000   -25.70000000    28.97000000
   H     64.20000000   -24.80000000    29.94000000
   N     68.05000000   -24.55000000    28.32000000
   C     69.41000000   -24.91000000    27.98000000
   C     70.46000000   -23.89000000    28.37000000
   O     71.60000000   -24.30000000    28.61000000
   C     69.63000000   -26.36000000    28.42000000
   H     67.47000000   -24.60000000    27.50000000
   H     69.58000000   -24.93000000    26.90000000
   H     68.99000000   -26.95000000    27.76000000
   H     70.67000000   -26.59000000    28.18000000
   H     69.31000000   -26.47000000    29.46000000
   N     70.13000000   -22.60000000    28.32000000
   C     71.02000000   -21.52000000    28.71000000
   C     71.50000000   -21.61000000    30.15000000
   O     72.57000000   -21.12000000    30.51000000
   C     72.12000000   -21.25000000    27.68000000
   C     71.58000000   -21.12000000    26.26000000
   O     70.88000000   -20.15000000    25.90000000
   O     71.93000000   -21.96000000    25.40000000
   H     69.20000000   -22.31000000    28.04000000
   H     70.36000000   -20.65000000    28.65000000
   H     72.81000000   -22.09000000    27.72000000
   H     72.59000000   -20.34000000    28.05000000
   N     70.80000000   -22.31000000    31.04000000
   C     71.14000000   -22.63000000    32.41000000
   C     71.13000000   -21.45000000    33.37000000
   O     70.39000000   -20.49000000    33.17000000
   H     69.88000000   -22.61000000    30.74000000
   H     72.16000000   -23.02000000    32.42000000
   H     70.50000000   -23.46000000    32.74000000
   N     71.94000000   -21.43000000    34.42000000
   C     72.19000000   -20.35000000    35.36000000
   C     70.89000000   -19.70000000    35.82000000
   O     70.66000000   -18.52000000    35.60000000
   C     73.21000000   -19.41000000    34.73000000
   C     74.59000000   -19.99000000    34.41000000
   N     75.09000000   -20.89000000    35.26000000
   O     75.22000000   -19.74000000    33.39000000
   H     72.36000000   -22.34000000    34.57000000
   H     72.67000000   -20.76000000    36.24000000
   H     73.43000000   -18.72000000    35.54000000
   H     72.79000000   -18.92000000    33.85000000
   H     74.59000000   -21.24000000    36.06000000
   H     76.02000000   -21.24000000    35.09000000
   N     69.96000000   -20.55000000    36.28000000
   C     68.66000000   -20.09000000    36.72000000
   C     67.60000000   -19.86000000    35.65000000
   O     66.44000000   -20.18000000    35.90000000
   H     70.12000000   -21.54000000    36.21000000
   H     68.64000000   -19.18000000    37.32000000
   H     68.18000000   -20.78000000    37.40000000
   N     67.92000000   -19.22000000    34.52000000
   C     67.07000000   -19.09000000    33.35000000
   C     67.10000000   -17.71000000    32.73000000
   O     68.15000000   -17.08000000    32.83000000
   C     67.35000000   -20.23000000    32.37000000
   C     67.37000000   -21.64000000    32.94000000
   O     66.32000000   -20.10000000    31.41000000
   H     68.86000000   -18.91000000    34.35000000
   H     66.06000000   -19.27000000    33.73000000
   H     68.35000000   -20.01000000    32.01000000
   H     66.58000000   -20.55000000    30.61000000
   H     66.66000000   -21.80000000    33.75000000
   H     67.26000000   -22.35000000    32.12000000
   H     68.36000000   -21.87000000    33.35000000
   N     66.05000000   -17.22000000    32.06000000
   C     66.00000000   -16.09000000    31.16000000
   C     67.17000000   -16.02000000    30.19000000
   O     67.64000000   -17.01000000    29.64000000
   C     64.66000000   -16.01000000    30.43000000
   C     63.59000000   -15.60000000    31.44000000
   C     64.64000000   -15.03000000    29.26000000
   C     62.18000000   -16.06000000    31.13000000
   H     65.14000000   -17.65000000    32.18000000
   H     66.04000000   -15.26000000    31.86000000
   H     64.36000000   -17.01000000    30.13000000
   H     63.55000000   -14.51000000    31.49000000
   H     63.89000000   -15.86000000    32.46000000
   H     65.20000000   -14.12000000    29.48000000
   H     65.14000000   -15.48000000    28.40000000
   H     63.64000000   -14.67000000    29.00000000
   H     61.41000000   -15.50000000    31.65000000
   H     61.90000000   -15.95000000    30.08000000
   H     62.11000000   -17.11000000    31.44000000
   N     67.72000000   -14.81000000    30.03000000
   C     68.90000000   -14.52000000    29.24000000
   C     70.13000000   -14.27000000    30.09000000
   O     71.08000000   -13.56000000    29.79000000
   C     68.62000000   -13.33000000    28.33000000
   C     69.62000000   -13.17000000    27.19000000
   O     69.57000000   -13.98000000    26.24000000
   O     70.50000000   -12.28000000    27.14000000
   H     67.20000000   -14.00000000    30.34000000
   H     69.21000000   -15.36000000    28.62000000
   H     68.70000000   -12.42000000    28.93000000
   H     67.65000000   -13.35000000    27.84000000
   N     70.19000000   -14.69000000    31.36000000
   C     71.24000000   -14.49000000    32.34000000
   C     70.99000000   -13.32000000    33.28000000
   O     71.96000000   -12.59000000    33.48000000
   C     71.46000000   -15.83000000    33.04000000
   C     72.63000000   -15.75000000    34.00000000
   C     72.33000000   -15.48000000    35.34000000
   C     73.91000000   -16.07000000    33.56000000
   C     73.40000000   -15.52000000    36.24000000
   C     74.95000000   -16.12000000    34.49000000
   C     74.72000000   -15.75000000    35.82000000
   H     69.44000000   -15.27000000    31.72000000
   H     72.20000000   -14.26000000    31.86000000
   H     71.70000000   -16.64000000    32.35000000
   H     70.59000000   -16.13000000    33.61000000
   H     71.35000000   -15.24000000    35.72000000
   H     74.13000000   -16.23000000    32.51000000
   H     73.27000000   -15.26000000    37.28000000
   H     75.95000000   -16.41000000    34.18000000
   H     75.60000000   -15.77000000    36.44000000
   N     69.85000000   -13.14000000    33.95000000
   C     68.50000000   -13.65000000    33.79000000
   C     67.58000000   -12.78000000    32.94000000
   O     66.38000000   -13.04000000    32.84000000
   C     68.02000000   -13.71000000    35.24000000
   C     68.64000000   -12.46000000    35.86000000
   C     69.85000000   -12.14000000    34.99000000
   H     68.64000000   -14.66000000    33.43000000
   H     66.93000000   -13.63000000    35.25000000
   H     68.47000000   -14.59000000    35.69000000
   H     67.96000000   -11.61000000    35.91000000
   H     68.93000000   -12.81000000    36.86000000
   H     69.68000000   -11.17000000    34.53000000
   H     70.78000000   -12.08000000    35.56000000
   N     68.10000000   -11.78000000    32.22000000
   C     67.37000000   -10.69000000    31.62000000
   C     66.28000000   -11.05000000    30.62000000
   O     66.45000000   -12.10000000    29.99000000
   C     68.38000000    -9.76000000    30.94000000
   C     67.86000000    -8.46000000    30.34000000
   C     69.04000000    -7.74000000    29.70000000
   O     69.54000000    -8.09000000    28.61000000
   O     69.53000000    -6.83000000    30.40000000
   H     69.04000000   -11.56000000    32.50000000
   H     66.82000000   -10.11000000    32.36000000
   H     68.75000000   -10.37000000    30.12000000
   H     69.26000000    -9.58000000    31.56000000
   H     67.50000000    -7.89000000    31.20000000
   H     67.11000000    -8.51000000    29.55000000
   N     65.14000000   -10.38000000    30.53000000
   C     63.96000000   -10.68000000    29.75000000
   H     63.18000000    -9.95400000    29.97800000
   H     64.20300000   -10.63000000    28.68900000
   H     63.60600000   -11.68100000    29.99600000
   H     65.09000000    -9.56000000    31.13000000
  Ca     69.04000000   -18.48300000    25.47000000
   O     68.07000000   -16.99300000    23.32000000
   H     67.28000000   -17.17300000    22.81000000
   H     68.06000000   -16.05300000    23.44000000
   O     68.19000000   -21.13300000    25.45000000
   H     68.49000000   -22.04300000    25.45000000
   H     67.36000000   -21.14300000    24.98000000
   O     69.57000000   -19.74300000    23.24000000
   H     69.60000000   -19.60300000    22.29000000
   H     70.13000000   -20.50300000    23.39000000
   O     70.66000000   -17.41300000    27.50000000
   H     71.14000000   -16.58300000    27.42000000
   H     71.09000000   -17.86300000    28.23000000
   O     68.12000000   -16.11300000    26.03000000
   H     68.83000000   -15.48300000    26.12000000
   H     67.37000000   -15.59300000    25.74000000
   O     68.26000000   -19.04300000    27.98000000
   H     68.19000000   -18.29300000    28.58000000
   H     67.72000000   -19.72300000    28.39000000
   O     66.55000000   -18.90300000    24.66000000
   H     66.19000000   -19.70300000    24.27000000
   H     66.11000000   -18.19300000    24.18000000
   O     70.76000000   -16.71300000    24.21000000
   H     70.83000000   -16.02300000    23.55000000
   H     71.59000000   -17.18300000    24.15000000

Ca 1.00



