%chk=loop4.apoCaM-CA-Ng.Init293.run86.water3.chk
%nprocshared=20
%mem=10GB
%nosave
#b3lyp/svp scf=(tight,noincore,xqc) Test 
#IOP(5/87=12) Density=Current Pop=(MK,readradii) iop(6/33=2) iop(6/42=6)

loop4.apoCaM-CA-Ng.Init293.run86.water3 

   -3  1 
   C     64.18000000    77.47000000    34.43000000
   C     63.54000000    76.25000000    35.06000000
   O     62.32000000    76.20000000    35.26000000
   H     65.16800000    77.20700000    34.05200000
   H     63.55900000    77.82300000    33.60700000
   H     64.27500000    78.25800000    35.17700000
   N     64.34000000    75.22000000    35.31000000
   C     64.20000000    73.93000000    35.97000000
   C     63.16000000    72.96000000    35.44000000
   O     63.11000000    71.81000000    35.85000000
   C     64.18000000    74.18000000    37.48000000
   C     63.17000000    75.10000000    38.15000000
   O     61.94000000    74.92000000    38.02000000
   O     63.55000000    76.09000000    38.80000000
   H     65.23000000    75.37000000    34.85000000
   H     65.13000000    73.41000000    35.76000000
   H     65.12000000    74.68000000    37.73000000
   H     64.09000000    73.23000000    38.00000000
   N     62.48000000    73.38000000    34.37000000
   C     61.24000000    72.76000000    33.93000000
   C     60.14000000    73.01000000    34.95000000
   O     60.03000000    74.05000000    35.59000000
   C     60.80000000    73.24000000    32.55000000
   C     61.84000000    72.80000000    31.53000000
   C     60.56000000    74.75000000    32.58000000
   C     61.48000000    72.86000000    30.05000000
   H     62.58000000    74.36000000    34.14000000
   H     61.43000000    71.68000000    33.88000000
   H     59.88000000    72.72000000    32.26000000
   H     62.15000000    71.77000000    31.68000000
   H     62.75000000    73.39000000    31.68000000
   H     60.22000000    75.10000000    31.61000000
   H     59.79000000    75.03000000    33.29000000
   H     61.48000000    75.25000000    32.91000000
   H     62.33000000    72.48000000    29.48000000
   H     60.61000000    72.27000000    29.75000000
   H     61.30000000    73.88000000    29.73000000
   N     59.30000000    72.01000000    35.25000000
   C     58.21000000    72.01000000    36.20000000
   C     58.70000000    71.96000000    37.64000000
   O     59.71000000    71.35000000    37.98000000
   C     57.22000000    70.88000000    35.94000000
   C     57.93000000    69.54000000    35.79000000
   O     57.93000000    68.83000000    36.82000000
   O     58.45000000    69.20000000    34.70000000
   H     59.53000000    71.13000000    34.81000000
   H     57.60000000    72.90000000    36.06000000
   H     56.71000000    71.09000000    35.00000000
   H     56.49000000    70.90000000    36.75000000
   N     57.97000000    72.49000000    38.63000000
   C     56.71000000    73.20000000    38.62000000
   C     56.73000000    74.56000000    37.93000000
   O     57.81000000    74.88000000    37.44000000
   H     58.29000000    72.34000000    39.57000000
   H     56.30000000    73.22000000    39.63000000
   H     56.00000000    72.65000000    38.00000000
   N     55.65000000    75.31000000    37.70000000
   C     54.29000000    74.88000000    37.98000000
   C     53.37000000    75.64000000    37.03000000
   O     52.77000000    76.65000000    37.39000000
   C     54.02000000    75.16000000    39.45000000
   C     52.63000000    74.74000000    39.92000000
   O     52.06000000    75.38000000    40.83000000
   O     52.15000000    73.70000000    39.41000000
   H     55.86000000    76.22000000    37.32000000
   H     54.17000000    73.80000000    37.85000000
   H     54.08000000    76.21000000    39.72000000
   H     54.74000000    74.65000000    40.09000000
   N     53.19000000    75.18000000    35.79000000
   C     54.04000000    74.24000000    35.08000000
   C     53.33000000    73.98000000    33.76000000
   O     52.60000000    73.00000000    33.65000000
   H     52.68000000    75.86000000    35.25000000
   H     54.12000000    73.34000000    35.68000000
   H     55.03000000    74.68000000    34.96000000
   N     53.55000000    74.86000000    32.78000000
   C     52.82000000    74.87000000    31.53000000
   C     53.70000000    75.01000000    30.30000000
   O     53.23000000    75.17000000    29.18000000
   C     51.81000000    76.02000000    31.51000000
   C     50.93000000    76.10000000    32.76000000
   C     49.75000000    75.16000000    32.56000000
   N     48.87000000    75.48000000    31.61000000
   O     49.44000000    74.25000000    33.32000000
   H     54.03000000    75.73000000    32.96000000
   H     52.25000000    73.95000000    31.37000000
   H     51.33000000    75.98000000    30.53000000
   H     52.35000000    76.96000000    31.51000000
   H     50.58000000    77.11000000    32.57000000
   H     51.46000000    75.99000000    33.71000000
   H     48.98000000    76.18000000    30.89000000
   H     48.14000000    74.79000000    31.45000000
   N     55.03000000    75.02000000    30.42000000
   C     55.90000000    75.18000000    29.27000000
   C     56.85000000    76.36000000    29.47000000
   O     57.24000000    76.56000000    30.61000000
   C     56.80000000    74.00000000    28.93000000
   C     55.94000000    72.79000000    28.58000000
   C     57.88000000    73.53000000    29.91000000
   H     55.34000000    75.10000000    31.37000000
   H     55.40000000    75.41000000    28.33000000
   H     57.39000000    74.34000000    28.08000000
   H     55.58000000    72.26000000    29.45000000
   H     55.18000000    73.15000000    27.89000000
   H     56.56000000    72.10000000    28.01000000
   H     58.53000000    72.83000000    29.40000000
   H     58.43000000    74.34000000    30.39000000
   H     57.35000000    73.02000000    30.72000000
   N     57.28000000    77.10000000    28.44000000
   C     57.77000000    78.44000000    28.70000000
   C     56.68000000    79.35000000    29.24000000
   O     57.00000000    80.36000000    29.88000000
   C     58.15000000    78.95000000    27.31000000
   C     58.97000000    80.23000000    27.29000000
   N     58.46000000    81.14000000    26.46000000
   O     60.02000000    80.43000000    27.89000000
   H     56.85000000    76.89000000    27.55000000
   H     58.61000000    78.52000000    29.39000000
   H     57.22000000    79.09000000    26.75000000
   H     58.63000000    78.24000000    26.63000000
   H     57.51000000    80.98000000    26.14000000
   H     58.86000000    82.07000000    26.42000000
   N     55.41000000    79.11000000    28.93000000
   C     54.33000000    79.94000000    29.43000000
   C     54.43000000    80.14000000    30.94000000
   O     54.46000000    79.22000000    31.75000000
   C     52.96000000    79.37000000    29.08000000
   C     52.35000000    79.64000000    27.73000000
   C     52.90000000    79.00000000    26.61000000
   C     51.24000000    80.48000000    27.56000000
   C     52.26000000    79.09000000    25.37000000
   C     50.62000000    80.57000000    26.31000000
   C     51.13000000    79.91000000    25.17000000
   O     50.61000000    80.00000000    23.91000000
   H     55.14000000    78.45000000    28.22000000
   H     54.38000000    80.89000000    28.90000000
   H     52.23000000    79.72000000    29.81000000
   H     52.99000000    78.28000000    29.19000000
   H     53.88000000    78.54000000    26.62000000
   H     50.94000000    81.08000000    28.40000000
   H     52.62000000    78.69000000    24.43000000
   H     49.72000000    81.17000000    26.26000000
   H     50.90000000    79.37000000    23.24000000
   N     54.54000000    81.42000000    31.28000000
   C     54.63000000    81.91000000    32.65000000
   C     55.84000000    81.51000000    33.48000000
   O     55.90000000    81.80000000    34.67000000
   C     53.34000000    81.82000000    33.46000000
   C     52.27000000    82.69000000    32.79000000
   C     50.98000000    82.56000000    33.59000000
   O     50.15000000    83.49000000    33.55000000
   O     50.65000000    81.52000000    34.20000000
   H     54.55000000    82.03000000    30.48000000
   H     54.81000000    82.97000000    32.47000000
   H     53.55000000    82.19000000    34.46000000
   H     53.04000000    80.77000000    33.46000000
   H     52.11000000    82.24000000    31.81000000
   H     52.52000000    83.75000000    32.74000000
   N     56.88000000    81.01000000    32.82000000
   C     58.17000000    80.89000000    33.47000000
   C     59.04000000    82.13000000    33.32000000
   O     60.09000000    82.29000000    33.94000000
   C     58.93000000    79.70000000    32.87000000
   C     58.32000000    78.33000000    33.17000000
   C     58.92000000    77.65000000    34.39000000
   O     58.18000000    76.83000000    34.97000000
   O     60.00000000    78.01000000    34.90000000
   H     56.81000000    80.54000000    31.93000000
   H     58.04000000    80.76000000    34.55000000
   H     59.97000000    79.76000000    33.19000000
   H     58.89000000    79.82000000    31.79000000
   H     58.62000000    77.76000000    32.29000000
   H     57.24000000    78.29000000    33.27000000
   N     58.49000000    83.10000000    32.58000000
   C     58.89000000    84.49000000    32.58000000
   H     59.84600000    84.59200000    32.06700000
   H     58.13600000    85.08600000    32.06500000
   H     58.99100000    84.84000000    33.60700000
   H     57.74000000    82.79000000    31.98000000
  Ca     60.05000000    76.31000000    36.90000000
   O     61.79000000    77.77000000    37.94000000
   H     62.57000000    77.22000000    37.99000000
   H     62.00000000    78.55000000    38.45000000
   O     58.34000000    78.18000000    37.91000000
   H     57.81000000    78.93000000    37.62000000
   H     58.71000000    78.46000000    38.75000000
   O     59.90000000    76.41000000    39.70000000
   H     59.24000000    76.70000000    40.33000000
   H     60.21000000    75.57000000    40.04000000

Ca 1.00



