%chk=loop2.holoCaM-CaMKII.run19.water2.chk
%nprocshared=20
%mem=10GB
%nosave
#b3lyp/svp scf=(tight,noincore,xqc) Test 
#IOP(5/87=12) Density=Current Pop=(MK,readradii) iop(6/33=2) iop(6/42=6)

loop2.holoCaM-CaMKII.run19.water2 

   -2  1 
   C     79.29000000    74.81000000     6.33000000
   C     80.00000000    74.36000000     5.06000000
   O     81.22000000    74.44000000     4.96000000
   H     78.28600000    74.38700000     6.35400000
   H     79.84900000    74.46700000     7.20100000
   H     79.22600000    75.89800000     6.34500000
   N     79.27000000    73.75000000     4.12000000
   C     79.84000000    72.96000000     3.06000000
   C     80.52000000    73.69000000     1.91000000
   O     80.07000000    74.73000000     1.43000000
   C     78.82000000    71.94000000     2.57000000
   C     79.35000000    71.10000000     1.42000000
   O     80.45000000    70.51000000     1.50000000
   O     78.79000000    71.02000000     0.30000000
   H     78.26000000    73.85000000     4.15000000
   H     80.64000000    72.38000000     3.52000000
   H     77.93000000    72.52000000     2.30000000
   H     78.53000000    71.27000000     3.38000000
   N     81.58000000    73.11000000     1.34000000
   C     82.40000000    73.70000000     0.31000000
   C     82.31000000    72.97000000    -1.02000000
   O     82.71000000    73.48000000    -2.07000000
   C     83.83000000    73.70000000     0.84000000
   H     81.88000000    72.23000000     1.73000000
   H     82.06000000    74.72000000     0.10000000
   H     84.49000000    74.31000000     0.22000000
   H     83.86000000    74.10000000     1.86000000
   H     84.21000000    72.68000000     0.85000000
   N     81.95000000    71.68000000    -0.97000000
   C     82.30000000    70.66000000    -1.93000000
   C     81.26000000    69.65000000    -2.38000000
   O     81.25000000    69.26000000    -3.54000000
   C     83.60000000    69.99000000    -1.49000000
   C     83.33000000    69.43000000    -0.11000000
   O     82.31000000    68.74000000     0.10000000
   O     83.96000000    69.89000000     0.87000000
   H     81.59000000    71.34000000    -0.08000000
   H     82.53000000    71.12000000    -2.89000000
   H     84.49000000    70.62000000    -1.61000000
   H     83.82000000    69.22000000    -2.23000000
   N     80.21000000    69.39000000    -1.59000000
   C     79.11000000    68.46000000    -1.76000000
   C     79.46000000    66.99000000    -1.66000000
   O     78.68000000    66.21000000    -2.20000000
   H     80.28000000    69.89000000    -0.72000000
   H     78.63000000    68.60000000    -2.73000000
   H     78.38000000    68.70000000    -0.98000000
   N     80.51000000    66.61000000    -0.92000000
   C     80.90000000    65.24000000    -0.68000000
   C     80.16000000    64.59000000     0.48000000
   O     80.54000000    63.47000000     0.82000000
   C     82.41000000    65.19000000    -0.46000000
   C     82.92000000    65.86000000     0.81000000
   N     84.22000000    65.86000000     1.09000000
   O     82.18000000    66.34000000     1.66000000
   H     81.06000000    67.34000000    -0.48000000
   H     80.67000000    64.69000000    -1.60000000
   H     83.00000000    65.63000000    -1.26000000
   H     82.79000000    64.17000000    -0.39000000
   H     84.88000000    65.53000000     0.40000000
   H     84.63000000    66.41000000     1.83000000
   N     79.16000000    65.21000000     1.12000000
   C     78.40000000    64.56000000     2.16000000
   C     78.99000000    64.47000000     3.56000000
   O     78.40000000    63.85000000     4.45000000
   H     78.94000000    66.17000000     0.90000000
   H     78.26000000    63.52000000     1.85000000
   H     77.47000000    65.12000000     2.26000000
   N     80.09000000    65.15000000     3.87000000
   C     80.83000000    65.02000000     5.11000000
   C     81.45000000    66.36000000     5.48000000
   O     81.77000000    67.18000000     4.62000000
   C     81.87000000    63.91000000     4.99000000
   C     81.37000000    62.48000000     4.79000000
   O     82.81000000    64.29000000     4.00000000
   H     80.39000000    65.83000000     3.17000000
   H     80.06000000    64.76000000     5.83000000
   H     82.31000000    63.80000000     5.98000000
   H     82.35000000    64.88000000     3.40000000
   H     82.18000000    61.80000000     4.53000000
   H     80.84000000    62.06000000     5.64000000
   H     80.69000000    62.51000000     3.93000000
   N     81.67000000    66.56000000     6.79000000
   C     82.49000000    67.66000000     7.25000000
   C     83.96000000    67.36000000     6.99000000
   O     84.49000000    66.36000000     7.47000000
   C     82.29000000    68.04000000     8.71000000
   C     80.94000000    67.67000000     9.32000000
   C     82.65000000    69.48000000     9.07000000
   C     80.67000000    67.83000000    10.82000000
   H     81.37000000    65.83000000     7.42000000
   H     82.23000000    68.53000000     6.65000000
   H     83.02000000    67.51000000     9.31000000
   H     80.69000000    66.64000000     9.08000000
   H     80.19000000    68.31000000     8.86000000
   H     83.65000000    69.80000000     8.77000000
   H     81.90000000    70.22000000     8.78000000
   H     82.69000000    69.45000000    10.16000000
   H     80.81000000    68.80000000    11.30000000
   H     79.61000000    67.60000000    10.96000000
   H     81.33000000    67.15000000    11.34000000
   N     84.62000000    68.19000000     6.18000000
   C     86.07000000    68.13000000     6.18000000
   C     86.69000000    68.95000000     7.30000000
   O     86.06000000    69.71000000     8.02000000
   C     86.53000000    68.46000000     4.76000000
   C     85.90000000    67.71000000     3.60000000
   O     84.79000000    68.04000000     3.14000000
   O     86.54000000    66.79000000     3.04000000
   H     84.19000000    69.05000000     5.85000000
   H     86.41000000    67.11000000     6.36000000
   H     87.56000000    68.12000000     4.78000000
   H     86.48000000    69.52000000     4.52000000
   N     88.02000000    68.95000000     7.41000000
   C     88.63000000    69.72000000     8.47000000
   C     88.61000000    71.24000000     8.33000000
   O     88.46000000    71.91000000     9.36000000
   C     90.04000000    69.23000000     8.77000000
   C     90.72000000    69.92000000     9.93000000
   C     91.92000000    70.63000000     9.74000000
   C     90.27000000    69.78000000    11.25000000
   C     92.59000000    71.23000000    10.81000000
   C     90.88000000    70.47000000    12.30000000
   C     92.08000000    71.16000000    12.11000000
   H     88.62000000    68.31000000     6.90000000
   H     88.00000000    69.46000000     9.32000000
   H     90.71000000    69.29000000     7.92000000
   H     89.87000000    68.21000000     9.12000000
   H     92.38000000    70.54000000     8.77000000
   H     89.25000000    69.45000000    11.39000000
   H     93.50000000    71.77000000    10.62000000
   H     90.50000000    70.55000000    13.30000000
   H     92.62000000    71.64000000    12.92000000
   N     88.62000000    71.82000000     7.13000000
   C     88.35000000    73.23000000     6.95000000
   C     86.98000000    73.66000000     7.45000000
   O     86.80000000    74.81000000     7.86000000
   C     88.65000000    73.53000000     5.48000000
   C     89.46000000    72.34000000     4.98000000
   C     89.16000000    71.19000000     5.94000000
   H     89.13000000    73.75000000     7.50000000
   H     87.72000000    73.53000000     4.92000000
   H     89.01000000    74.56000000     5.38000000
   H     89.14000000    72.14000000     3.96000000
   H     90.52000000    72.59000000     5.01000000
   H     88.41000000    70.57000000     5.46000000
   H     90.14000000    70.72000000     6.09000000
   N     85.95000000    72.82000000     7.32000000
   C     84.53000000    73.07000000     7.49000000
   C     84.14000000    72.86000000     8.95000000
   O     83.30000000    73.59000000     9.47000000
   C     83.71000000    72.18000000     6.58000000
   C     84.11000000    72.25000000     5.10000000
   C     83.38000000    71.21000000     4.26000000
   O     82.86000000    71.43000000     3.14000000
   O     83.18000000    70.10000000     4.80000000
   H     86.23000000    71.95000000     6.90000000
   H     84.38000000    74.10000000     7.14000000
   H     82.66000000    72.48000000     6.57000000
   H     83.80000000    71.19000000     7.03000000
   H     85.15000000    71.99000000     4.94000000
   H     83.77000000    73.20000000     4.69000000
   N     84.88000000    72.00000000     9.66000000
   C     84.79000000    71.82000000    11.09000000
   H     83.75300000    71.93200000    11.40500000
   H     85.14300000    70.82300000    11.35400000
   H     85.40400000    72.56900000    11.59000000
   H     85.59000000    71.48000000     9.17000000
  Ca     82.31000000    68.92000000     2.67000000
   O     80.36000000    69.88000000     4.70000000
   H     80.78000000    70.46000000     5.33000000
   H     79.42000000    70.02000000     4.82000000
   O     79.60000000    68.02000000     1.82000000
   H     79.78000000    68.87000000     1.42000000
   H     78.71000000    68.09000000     2.16000000

Ca 1.00



