%chk=loop2.apoCaM-CA-Ng.Init31.run1.water3.chk
%nprocshared=20
%mem=10GB
%nosave
#b3lyp/svp scf=(tight,noincore,xqc) Test 
#IOP(5/87=12) Density=Current Pop=(MK,readradii) iop(6/33=2) iop(6/42=6)

loop2.apoCaM-CA-Ng.Init31.run1.water3 

   -2  1 
   C     39.18000000    44.25000000     2.24000000
   C     37.76000000    44.80000000     2.31000000
   O     37.53000000    45.96000000     2.67000000
   H     39.84500000    44.88700000     2.82400000
   H     39.19900000    43.23800000     2.64500000
   H     39.51300000    44.23300000     1.20200000
   N     36.58000000    44.23000000     2.11000000
   C     36.17000000    42.98000000     1.49000000
   C     35.05000000    42.26000000     2.22000000
   O     34.22000000    42.94000000     2.81000000
   C     35.83000000    43.21000000     0.02000000
   C     34.81000000    44.29000000    -0.31000000
   O     34.44000000    44.39000000    -1.50000000
   O     34.44000000    45.09000000     0.58000000
   H     35.89000000    44.93000000     2.34000000
   H     37.07000000    42.36000000     1.44000000
   H     35.49000000    42.25000000    -0.39000000
   H     36.79000000    43.49000000    -0.43000000
   N     34.98000000    40.93000000     2.09000000
   C     34.20000000    39.85000000     2.66000000
   C     32.74000000    39.96000000     2.22000000
   O     32.12000000    38.94000000     1.91000000
   C     34.41000000    39.80000000     4.17000000
   H     35.80000000    40.55000000     1.63000000
   H     34.56000000    38.88000000     2.33000000
   H     35.47000000    39.89000000     4.39000000
   H     33.98000000    40.69000000     4.63000000
   H     34.06000000    38.88000000     4.63000000
   N     32.15000000    41.12000000     1.94000000
   C     30.94000000    41.43000000     1.21000000
   C     31.25000000    42.43000000     0.11000000
   O     31.86000000    43.47000000     0.35000000
   C     29.79000000    41.76000000     2.16000000
   C     30.17000000    42.61000000     3.37000000
   O     31.01000000    43.53000000     3.28000000
   O     29.67000000    42.36000000     4.49000000
   H     32.72000000    41.95000000     2.06000000
   H     30.63000000    40.53000000     0.67000000
   H     29.55000000    40.79000000     2.60000000
   H     28.88000000    42.08000000     1.66000000
   N     30.80000000    42.06000000    -1.09000000
   C     31.00000000    42.85000000    -2.29000000
   C     29.84000000    43.84000000    -2.27000000
   O     28.88000000    43.62000000    -3.00000000
   H     30.23000000    41.23000000    -1.19000000
   H     30.93000000    42.19000000    -3.15000000
   H     31.90000000    43.46000000    -2.24000000
   N     30.01000000    44.88000000    -1.44000000
   C     29.13000000    46.01000000    -1.24000000
   C     29.89000000    47.33000000    -1.36000000
   O     29.30000000    48.40000000    -1.48000000
   C     28.24000000    45.98000000    -0.01000000
   C     29.12000000    46.12000000     1.22000000
   N     28.71000000    46.91000000     2.21000000
   O     30.24000000    45.62000000     1.32000000
   H     30.90000000    44.83000000    -0.97000000
   H     28.57000000    45.90000000    -2.17000000
   H     27.87000000    44.96000000     0.11000000
   H     27.45000000    46.72000000    -0.07000000
   H     27.73000000    47.11000000     2.37000000
   H     29.33000000    46.81000000     3.00000000
   N     31.21000000    47.36000000    -1.21000000
   C     32.01000000    48.57000000    -1.09000000
   C     32.72000000    48.70000000     0.25000000
   O     32.71000000    47.77000000     1.06000000
   H     31.60000000    46.47000000    -0.96000000
   H     31.45000000    49.50000000    -1.16000000
   H     32.76000000    48.65000000    -1.88000000
   N     33.35000000    49.85000000     0.51000000
   C     33.54000000    50.96000000    -0.41000000
   C     34.89000000    51.66000000    -0.32000000
   O     35.11000000    52.61000000    -1.07000000
   C     32.35000000    51.92000000    -0.29000000
   C     32.46000000    52.91000000     0.86000000
   O     32.13000000    52.68000000    -1.45000000
   H     33.82000000    49.83000000     1.40000000
   H     33.50000000    50.70000000    -1.47000000
   H     31.48000000    51.32000000    -0.06000000
   H     31.20000000    52.72000000    -1.67000000
   H     31.47000000    53.32000000     1.05000000
   H     32.62000000    52.35000000     1.78000000
   H     33.20000000    53.70000000     0.71000000
   N     35.84000000    51.24000000     0.51000000
   C     36.98000000    51.94000000     1.06000000
   C     36.88000000    53.46000000     1.14000000
   O     37.49000000    54.14000000     0.32000000
   C     38.22000000    51.52000000     0.28000000
   C     38.20000000    50.00000000     0.07000000
   C     39.43000000    51.98000000     1.08000000
   C     39.43000000    49.49000000    -0.67000000
   H     35.80000000    50.31000000     0.90000000
   H     37.19000000    51.50000000     2.03000000
   H     38.22000000    52.01000000    -0.70000000
   H     37.32000000    49.74000000    -0.52000000
   H     38.08000000    49.57000000     1.06000000
   H     40.38000000    51.67000000     0.64000000
   H     39.47000000    53.06000000     0.95000000
   H     39.48000000    51.78000000     2.15000000
   H     40.22000000    49.24000000     0.05000000
   H     39.13000000    48.52000000    -1.05000000
   H     39.82000000    50.19000000    -1.40000000
   N     36.08000000    53.94000000     2.10000000
   C     35.38000000    53.27000000     3.17000000
   C     36.34000000    52.66000000     4.18000000
   O     36.14000000    51.55000000     4.66000000
   C     34.40000000    54.23000000     3.83000000
   C     34.90000000    55.47000000     4.55000000
   O     34.09000000    56.19000000     5.17000000
   O     36.09000000    55.86000000     4.57000000
   H     35.98000000    54.95000000     2.02000000
   H     34.79000000    52.42000000     2.82000000
   H     33.75000000    53.64000000     4.48000000
   H     33.80000000    54.62000000     3.01000000
   N     37.39000000    53.40000000     4.53000000
   C     38.42000000    52.98000000     5.46000000
   C     37.95000000    52.87000000     6.90000000
   O     36.96000000    53.49000000     7.28000000
   C     39.63000000    53.86000000     5.17000000
   C     39.54000000    55.26000000     5.73000000
   C     39.03000000    56.27000000     4.90000000
   C     39.90000000    55.51000000     7.06000000
   C     39.06000000    57.58000000     5.38000000
   C     39.90000000    56.82000000     7.57000000
   C     39.51000000    57.83000000     6.69000000
   H     37.28000000    54.36000000     4.24000000
   H     38.67000000    51.94000000     5.23000000
   H     39.83000000    53.95000000     4.10000000
   H     40.54000000    53.43000000     5.59000000
   H     38.76000000    56.08000000     3.87000000
   H     40.32000000    54.73000000     7.68000000
   H     38.93000000    58.43000000     4.73000000
   H     40.10000000    56.97000000     8.62000000
   H     39.60000000    58.85000000     7.04000000
   N     38.71000000    52.22000000     7.78000000
   C     39.84000000    51.34000000     7.53000000
   C     39.51000000    50.00000000     6.89000000
   O     38.35000000    49.76000000     6.57000000
   C     40.54000000    51.22000000     8.88000000
   C     39.88000000    52.22000000     9.83000000
   C     38.49000000    52.37000000     9.20000000
   H     40.57000000    51.81000000     6.87000000
   H     40.32000000    50.20000000     9.21000000
   H     41.62000000    51.30000000     8.71000000
   H     39.91000000    51.97000000    10.89000000
   H     40.34000000    53.15000000     9.51000000
   H     37.95000000    51.47000000     9.50000000
   H     37.93000000    53.27000000     9.44000000
   N     40.45000000    49.06000000     6.84000000
   C     40.20000000    47.72000000     6.33000000
   C     41.35000000    47.10000000     5.56000000
   O     41.41000000    45.88000000     5.46000000
   C     39.64000000    46.88000000     7.48000000
   C     40.56000000    46.60000000     8.66000000
   C     39.94000000    45.68000000     9.71000000
   O     39.23000000    46.21000000    10.59000000
   O     40.22000000    44.46000000     9.71000000
   H     41.36000000    49.30000000     7.21000000
   H     39.45000000    47.87000000     5.56000000
   H     39.23000000    46.00000000     6.98000000
   H     38.69000000    47.33000000     7.80000000
   H     40.82000000    47.58000000     9.05000000
   H     41.50000000    46.13000000     8.39000000
   N     42.36000000    47.78000000     4.99000000
   C     42.64000000    49.19000000     4.82000000
   H     43.60000000    49.31100000     4.31800000
   H     41.85500000    49.64700000     4.21700000
   H     42.67700000    49.67400000     5.79600000
   H     43.04000000    47.16000000     4.56000000
  Ca     32.63000000    45.25000000     2.42000000
   O     34.79000000    46.61000000     3.21000000
   H     35.62000000    46.55000000     3.70000000
   H     34.50000000    47.51000000     3.34000000
   O     33.12000000    45.33000000     5.09000000
   H     33.91000000    44.99000000     5.50000000
   H     32.58000000    45.64000000     5.82000000
   O     31.71000000    47.67000000     3.64000000
   H     30.99000000    47.70000000     4.26000000
   H     31.50000000    48.34000000     2.99000000

Ca 1.00



