%chk=loop1.apoCaM-CA-Ng.Init31.run52.water4.chk
%nprocshared=20
%mem=10GB
%nosave
#b3lyp/svp scf=(tight,noincore,xqc) Test 
#IOP(5/87=12) Density=Current Pop=(MK,readradii) iop(6/33=2) iop(6/42=6)

loop1.apoCaM-CA-Ng.Init31.run52.water4 

   0  1 
   C     91.77000000    89.17000000    25.02000000
   C     92.21000000    90.48000000    24.37000000
   O     93.03000000    91.18000000    24.95000000
   H     90.77800000    88.90100000    24.65800000
   H     92.47600000    88.38100000    24.76200000
   H     91.74100000    89.29300000    26.10300000
   N     91.79000000    90.84000000    23.16000000
   C     91.97000000    92.15000000    22.56000000
   C     90.69000000    92.65000000    21.90000000
   O     89.74000000    91.91000000    21.69000000
   C     93.12000000    92.02000000    21.57000000
   C     93.72000000    93.28000000    20.96000000
   O     94.61000000    93.17000000    20.09000000
   O     93.43000000    94.42000000    21.38000000
   H     91.17000000    90.21000000    22.67000000
   H     92.33000000    92.80000000    23.36000000
   H     92.88000000    91.33000000    20.76000000
   H     93.91000000    91.52000000    22.15000000
   N     90.65000000    93.91000000    21.45000000
   C     89.59000000    94.64000000    20.78000000
   C     88.95000000    93.98000000    19.57000000
   O     87.73000000    93.89000000    19.47000000
   C     90.21000000    96.02000000    20.56000000
   C     89.16000000    96.95000000    19.95000000
   C     89.37000000    98.46000000    20.01000000
   C     89.21000000    98.88000000    21.47000000
   N     89.08000000   100.32000000    21.72000000
   H     91.57000000    94.34000000    21.45000000
   H     88.82000000    94.76000000    21.54000000
   H     91.14000000    96.04000000    19.99000000
   H     90.46000000    96.44000000    21.53000000
   H     88.23000000    96.65000000    20.43000000
   H     89.06000000    96.67000000    18.90000000
   H     88.56000000    99.03000000    19.55000000
   H     90.34000000    98.77000000    19.63000000
   H     90.02000000    98.43000000    22.03000000
   H     88.34000000    98.28000000    21.76000000
   H     88.36000000   100.75000000    21.16000000
   H     88.81000000   100.68000000    22.63000000
   H     89.87000000   100.88000000    21.43000000
   N     89.65000000    93.43000000    18.57000000
   C     91.05000000    93.53000000    18.21000000
   C     91.56000000    92.18000000    17.74000000
   O     90.82000000    91.37000000    17.19000000
   C     91.18000000    94.68000000    17.21000000
   C     92.59000000    95.26000000    17.26000000
   O     93.35000000    94.94000000    18.20000000
   O     92.93000000    96.06000000    16.37000000
   H     89.07000000    93.25000000    17.75000000
   H     91.59000000    93.78000000    19.12000000
   H     90.47000000    95.43000000    17.55000000
   H     90.90000000    94.40000000    16.19000000
   N     92.88000000    91.95000000    17.75000000
   C     93.46000000    90.67000000    17.38000000
   C     94.93000000    90.45000000    17.70000000
   O     95.26000000    89.45000000    18.32000000
   H     93.48000000    92.65000000    18.16000000
   H     93.22000000    90.64000000    16.31000000
   H     92.89000000    89.91000000    17.91000000
   N     95.82000000    91.36000000    17.29000000
   C     97.25000000    91.24000000    17.51000000
   C     97.91000000    90.21000000    16.60000000
   O     97.66000000    90.04000000    15.41000000
   C     97.98000000    92.57000000    17.40000000
   C     97.23000000    93.68000000    18.13000000
   O     97.55000000    93.83000000    19.33000000
   O     96.47000000    94.43000000    17.48000000
   H     95.56000000    92.30000000    17.03000000
   H     97.34000000    90.95000000    18.56000000
   H     98.01000000    92.85000000    16.35000000
   H     99.01000000    92.44000000    17.73000000
   N     98.87000000    89.45000000    17.13000000
   C     99.43000000    89.41000000    18.47000000
   C    100.68000000    90.24000000    18.71000000
   O    101.01000000    90.39000000    19.89000000
   H     99.22000000    88.76000000    16.49000000
   H     99.72000000    88.36000000    18.59000000
   H     98.79000000    89.73000000    19.29000000
   N    101.34000000    90.76000000    17.68000000
   C    102.74000000    91.11000000    17.81000000
   C    103.58000000    89.95000000    18.34000000
   O    104.29000000    90.07000000    19.34000000
   C    102.92000000    92.45000000    18.51000000
   C    102.20000000    93.66000000    17.91000000
   O    104.29000000    92.65000000    18.27000000
   H    101.03000000    90.55000000    16.74000000
   H    103.19000000    91.25000000    16.83000000
   H    102.95000000    92.33000000    19.59000000
   H    104.74000000    91.91000000    18.68000000
   H    102.53000000    93.81000000    16.88000000
   H    101.12000000    93.57000000    17.92000000
   H    102.51000000    94.48000000    18.56000000
   N    103.50000000    88.84000000    17.60000000
   C    104.21000000    87.59000000    17.75000000
   C    105.70000000    87.67000000    17.45000000
   O    106.09000000    86.98000000    16.51000000
   C    103.84000000    86.85000000    19.04000000
   C    102.36000000    86.83000000    19.41000000
   C    104.34000000    85.41000000    19.03000000
   C    101.36000000    86.37000000    18.35000000
   H    102.76000000    88.84000000    16.91000000
   H    103.76000000    87.03000000    16.92000000
   H    104.39000000    87.42000000    19.79000000
   H    102.11000000    87.85000000    19.71000000
   H    102.36000000    86.23000000    20.32000000
   H    104.08000000    84.94000000    18.09000000
   H    105.43000000    85.33000000    19.14000000
   H    103.99000000    84.85000000    19.89000000
   H    101.47000000    85.32000000    18.09000000
   H    100.35000000    86.36000000    18.76000000
   H    101.31000000    87.08000000    17.52000000
   N    106.43000000    88.47000000    18.23000000
   C    107.84000000    88.75000000    18.07000000
   C    108.64000000    88.68000000    19.36000000
   O    108.02000000    88.70000000    20.42000000
   C    108.00000000    90.16000000    17.51000000
   C    107.52000000    91.30000000    18.40000000
   O    107.48000000    90.26000000    16.20000000
   H    105.96000000    88.87000000    19.03000000
   H    108.35000000    87.96000000    17.51000000
   H    109.06000000    90.41000000    17.47000000
   H    107.79000000    89.58000000    15.60000000
   H    108.02000000    92.24000000    18.15000000
   H    106.45000000    91.47000000    18.24000000
   H    107.77000000    91.13000000    19.45000000
   N    109.97000000    88.70000000    19.28000000
   C    110.86000000    88.73000000    20.43000000
   C    110.83000000    90.09000000    21.11000000
   O    111.00000000    91.05000000    20.36000000
   C    112.25000000    88.21000000    20.13000000
   C    112.20000000    86.74000000    19.69000000
   O    112.82000000    89.01000000    19.12000000
   H    110.42000000    88.81000000    18.38000000
   H    110.43000000    88.03000000    21.15000000
   H    112.77000000    88.28000000    21.09000000
   H    112.63000000    88.63000000    18.26000000
   H    111.90000000    86.17000000    20.57000000
   H    111.57000000    86.51000000    18.83000000
   H    113.21000000    86.37000000    19.54000000
   N    110.65000000    90.18000000    22.43000000
   C    110.37000000    91.39000000    23.18000000
   C    109.41000000    92.36000000    22.50000000
   O    109.74000000    93.39000000    21.92000000
   C    111.62000000    92.14000000    23.62000000
   C    111.33000000    93.19000000    24.69000000
   C    112.49000000    93.62000000    25.58000000
   C    113.75000000    93.87000000    24.77000000
   N    114.84000000    94.05000000    25.74000000
   H    110.50000000    89.30000000    22.91000000
   H    109.87000000    91.05000000    24.09000000
   H    112.04000000    92.65000000    22.75000000
   H    112.31000000    91.42000000    24.06000000
   H    110.55000000    92.85000000    25.37000000
   H    110.92000000    94.08000000    24.21000000
   H    112.78000000    92.81000000    26.25000000
   H    112.16000000    94.49000000    26.15000000
   H    113.66000000    94.80000000    24.20000000
   H    113.97000000    93.06000000    24.08000000
   H    115.68000000    94.26000000    25.22000000
   H    114.61000000    94.72000000    26.46000000
   H    115.07000000    93.17000000    26.18000000
   N    108.15000000    91.94000000    22.68000000
   C    106.98000000    92.69000000    22.28000000
   C    105.84000000    91.97000000    21.58000000
   O    105.04000000    92.63000000    20.91000000
   C    106.48000000    93.42000000    23.53000000
   C    105.53000000    94.60000000    23.33000000
   C    105.34000000    95.39000000    24.61000000
   O    105.29000000    96.64000000    24.56000000
   O    105.30000000    94.80000000    25.71000000
   H    108.00000000    91.20000000    23.34000000
   H    107.31000000    93.42000000    21.54000000
   H    107.36000000    93.80000000    24.05000000
   H    106.01000000    92.69000000    24.19000000
   H    104.54000000    94.24000000    23.02000000
   H    105.98000000    95.30000000    22.62000000
   N    105.66000000    90.66000000    21.74000000
   C    106.10000000    89.70000000    22.73000000
   H    106.99500000    90.07500000    23.22700000
   H    105.31100000    89.55000000    23.46700000
   H    106.32700000    88.75200000    22.24200000
   H    105.03000000    90.26000000    21.06000000
  Ca     95.36000000    95.53000000    19.72000000
   O     95.66000000    97.35000000    18.02000000
   H     95.03000000    97.55000000    17.34000000
   H     96.27000000    98.09000000    18.02000000
   O     95.99000000    95.08000000    22.18000000
   H     96.10000000    94.14000000    22.08000000
   H     95.84000000    95.21000000    23.12000000
   O     94.27000000    97.87000000    20.70000000
   H     94.20000000    98.70000000    20.22000000
   H     93.65000000    97.95000000    21.42000000
   O     97.85000000    96.71000000    20.33000000
   H     97.72000000    97.50000000    20.86000000
   H     98.80000000    96.62000000    20.27000000

Ca 1.00



