%chk=loop3.apoCaM-CA-Ng.Init31.run64.water6.chk
%nprocshared=20
%mem=10GB
%nosave
#b3lyp/svp scf=(tight,noincore,xqc) Test 
#IOP(5/87=12) Density=Current Pop=(MK,readradii) iop(6/33=2) iop(6/42=6)

loop3.apoCaM-CA-Ng.Init31.run64.water6 

   0  1 
   C    113.25000000    69.46000000    19.75000000
   C    112.45000000    70.02000000    18.58000000
   O    111.48000000    69.41000000    18.12000000
   H    114.15200000    70.05600000    19.89100000
   H    112.64500000    69.49800000    20.65600000
   H    113.52700000    68.42700000    19.54000000
   N    112.97000000    71.05000000    17.91000000
   C    112.61000000    71.50000000    16.58000000
   C    113.06000000    70.50000000    15.52000000
   O    113.88000000    69.61000000    15.71000000
   C    113.13000000    72.89000000    16.24000000
   C    114.63000000    73.13000000    16.34000000
   O    115.22000000    72.64000000    17.32000000
   O    115.17000000    73.83000000    15.46000000
   H    113.82000000    71.40000000    18.32000000
   H    111.53000000    71.42000000    16.43000000
   H    112.66000000    73.55000000    16.98000000
   H    112.73000000    73.31000000    15.31000000
   N    112.42000000    70.63000000    14.35000000
   C    112.70000000    69.69000000    13.28000000
   C    112.27000000    68.25000000    13.49000000
   O    113.03000000    67.41000000    13.01000000
   C    112.10000000    70.08000000    11.94000000
   C    112.82000000    71.30000000    11.36000000
   C    112.02000000    71.91000000    10.21000000
   C    113.01000000    72.53000000     9.23000000
   N    112.37000000    72.89000000     7.95000000
   H    111.62000000    71.24000000    14.26000000
   H    113.78000000    69.61000000    13.17000000
   H    111.03000000    70.23000000    12.09000000
   H    112.32000000    69.31000000    11.20000000
   H    113.85000000    71.04000000    11.12000000
   H    112.91000000    72.08000000    12.11000000
   H    111.29000000    72.61000000    10.62000000
   H    111.39000000    71.14000000     9.78000000
   H    113.81000000    71.80000000     9.09000000
   H    113.49000000    73.41000000     9.67000000
   H    113.11000000    73.10000000     7.29000000
   H    111.78000000    72.24000000     7.45000000
   H    111.80000000    73.71000000     8.07000000
   N    111.07000000    67.92000000    13.96000000
   C    110.48000000    66.61000000    14.09000000
   C    109.54000000    66.19000000    12.97000000
   O    108.70000000    65.31000000    13.11000000
   C    109.83000000    66.53000000    15.47000000
   C    108.77000000    67.54000000    15.86000000
   O    108.39000000    67.51000000    17.05000000
   O    108.42000000    68.45000000    15.08000000
   H    110.44000000    68.68000000    14.20000000
   H    111.28000000    65.87000000    14.11000000
   H    110.72000000    66.58000000    16.10000000
   H    109.49000000    65.53000000    15.74000000
   N    109.64000000    66.80000000    11.78000000
   C    108.88000000    66.46000000    10.61000000
   C    109.46000000    67.07000000     9.34000000
   O    110.13000000    68.08000000     9.56000000
   H    110.28000000    67.59000000    11.76000000
   H    107.89000000    66.93000000    10.60000000
   H    108.83000000    65.38000000    10.50000000
   N    109.22000000    66.61000000     8.11000000
   C    108.38000000    65.51000000     7.69000000
   C    107.01000000    65.52000000     8.37000000
   O    106.48000000    66.61000000     8.56000000
   C    108.18000000    65.66000000     6.19000000
   C    109.50000000    65.55000000     5.43000000
   N    109.61000000    64.49000000     4.63000000
   O    110.46000000    66.32000000     5.51000000
   H    109.66000000    67.09000000     7.34000000
   H    108.83000000    64.56000000     7.98000000
   H    107.73000000    66.62000000     5.92000000
   H    107.42000000    64.97000000     5.82000000
   H    108.80000000    63.89000000     4.51000000
   H    110.50000000    64.25000000     4.23000000
   N    106.40000000    64.36000000     8.61000000
   C    106.88000000    63.02000000     8.32000000
   C    107.68000000    62.29000000     9.38000000
   O    108.21000000    62.95000000    10.27000000
   H    105.45000000    64.47000000     8.94000000
   H    107.47000000    63.02000000     7.41000000
   H    105.97000000    62.53000000     7.95000000
   N    107.78000000    60.96000000     9.30000000
   C    108.19000000    60.08000000    10.38000000
   C    109.10000000    58.97000000     9.87000000
   O    108.66000000    57.89000000     9.50000000
   C    107.02000000    59.44000000    11.12000000
   C    106.05000000    60.37000000    11.81000000
   C    106.43000000    61.35000000    12.73000000
   C    104.71000000    60.39000000    11.39000000
   C    105.49000000    62.19000000    13.35000000
   C    103.78000000    61.28000000    11.94000000
   C    104.15000000    62.22000000    12.93000000
   O    103.29000000    63.21000000    13.30000000
   H    107.52000000    60.53000000     8.43000000
   H    108.74000000    60.67000000    11.12000000
   H    107.35000000    58.67000000    11.82000000
   H    106.37000000    58.85000000    10.47000000
   H    107.47000000    61.45000000    12.99000000
   H    104.37000000    59.82000000    10.55000000
   H    105.74000000    62.99000000    14.03000000
   H    102.75000000    61.27000000    11.61000000
   H    102.43000000    63.06000000    12.90000000
   N    110.37000000    59.32000000     9.68000000
   C    111.27000000    58.71000000     8.72000000
   C    112.64000000    58.39000000     9.31000000
   O    113.52000000    58.10000000     8.51000000
   C    111.48000000    59.61000000     7.50000000
   C    110.20000000    59.68000000     6.67000000
   C    111.93000000    61.01000000     7.92000000
   C    110.16000000    60.67000000     5.51000000
   H    110.73000000    60.13000000    10.17000000
   H    110.83000000    57.77000000     8.40000000
   H    112.28000000    59.26000000     6.85000000
   H    109.33000000    59.96000000     7.27000000
   H    109.98000000    58.65000000     6.38000000
   H    112.88000000    60.95000000     8.44000000
   H    111.97000000    61.64000000     7.03000000
   H    111.21000000    61.46000000     8.60000000
   H    110.17000000    61.64000000     6.01000000
   H    110.99000000    60.52000000     4.82000000
   H    109.15000000    60.54000000     5.13000000
   N    112.92000000    58.51000000    10.61000000
   C    114.24000000    58.11000000    11.08000000
   C    115.17000000    59.31000000    11.19000000
   O    116.36000000    59.16000000    11.49000000
   C    114.20000000    57.29000000    12.36000000
   O    113.64000000    58.09000000    13.38000000
   H    112.18000000    58.84000000    11.20000000
   H    114.67000000    57.48000000    10.30000000
   H    115.18000000    56.91000000    12.63000000
   H    113.69000000    56.36000000    12.13000000
   H    113.01000000    58.71000000    13.01000000
   N    114.69000000    60.54000000    11.04000000
   C    115.42000000    61.80000000    11.09000000
   C    115.64000000    62.16000000    12.55000000
   O    115.48000000    63.32000000    12.90000000
   C    114.57000000    62.83000000    10.35000000
   H    113.69000000    60.59000000    11.06000000
   H    116.40000000    61.78000000    10.61000000
   H    114.36000000    62.50000000     9.34000000
   H    113.64000000    63.07000000    10.86000000
   H    115.21000000    63.72000000    10.34000000
   N    115.79000000    61.19000000    13.46000000
   C    115.78000000    61.34000000    14.90000000
   C    114.52000000    61.96000000    15.49000000
   O    114.66000000    62.53000000    16.57000000
   C    117.07000000    61.94000000    15.44000000
   H    115.91000000    60.22000000    13.20000000
   H    115.70000000    60.31000000    15.26000000
   H    117.94000000    61.32000000    15.22000000
   H    117.10000000    62.94000000    15.01000000
   H    117.01000000    62.00000000    16.53000000
   N    113.35000000    61.94000000    14.85000000
   C    112.12000000    62.44000000    15.44000000
   C    111.58000000    61.41000000    16.42000000
   O    111.20000000    61.72000000    17.55000000
   C    111.08000000    62.83000000    14.40000000
   C    110.50000000    61.78000000    13.45000000
   C    111.54000000    61.11000000    12.56000000
   O    112.20000000    60.15000000    13.02000000
   O    111.64000000    61.40000000    11.35000000
   H    113.34000000    61.30000000    14.07000000
   H    112.35000000    63.35000000    15.99000000
   H    111.44000000    63.63000000    13.76000000
   H    110.26000000    63.30000000    14.95000000
   H    109.77000000    62.27000000    12.82000000
   H    109.94000000    61.00000000    13.98000000
   N    111.50000000    60.16000000    15.97000000
   C    111.06000000    59.06000000    16.79000000
   H    110.05700000    58.75900000    16.48600000
   H    111.74300000    58.21900000    16.66900000
   H    111.04500000    59.36900000    17.83500000
   H    111.87000000    60.02000000    15.04000000
  Ca    106.22700000    69.14000000    17.09000000
   O    108.40700000    70.46000000    17.32000000
   H    108.62700000    70.89000000    16.50000000
   H    109.21700000    70.03000000    17.60000000
   O    107.28700000    68.90000000    19.68000000
   H    106.76700000    69.05000000    20.47000000
   H    108.09700000    69.38000000    19.83000000
   O    105.27700000    70.09000000    14.75000000
   H    104.39700000    69.71000000    14.83000000
   H    105.14700000    70.89000000    14.24000000
   O    103.46700000    69.16000000    16.96000000
   H    102.94700000    68.38000000    17.13000000
   H    102.83700000    69.88000000    16.98000000
   O    105.68700000    66.98000000    15.63000000
   H    106.40700000    66.58000000    15.16000000
   H    104.92700000    66.44000000    15.41000000
   O    104.93700000    67.24000000    18.79000000
   H    105.32700000    67.04000000    19.64000000
   H    104.19700000    66.63000000    18.71000000

Ca 1.00



