%chk=loop1.holoCaM.run33.water2.chk
%nprocshared=20
%mem=10GB
%nosave
#b3lyp/svp scf=(tight,noincore,xqc) Test 
#IOP(5/87=12) Density=Current Pop=(MK,readradii) iop(6/33=2) iop(6/42=6)

loop1.holoCaM.run33.water2 

   0  1 
   C     66.73000000    87.64000000     7.54700000
   C     66.57000000    88.44000000     8.83700000
   O     65.62000000    88.14000000     9.55700000
   H     67.78000000    87.38000000     7.40900000
   H     66.13500000    86.72900000     7.60800000
   H     66.39100000    88.24000000     6.70200000
   N     67.58000000    89.22000000     9.21700000
   C     67.56000000    90.29000000    10.18700000
   C     66.70000000    91.45000000     9.67700000
   O     66.87000000    91.90000000     8.54700000
   C     69.00000000    90.77000000    10.35700000
   C     69.16000000    91.95000000    11.30700000
   O     70.25000000    92.56000000    11.17700000
   O     68.27000000    92.29000000    12.10700000
   H     68.38000000    89.16000000     8.59700000
   H     67.21000000    89.93000000    11.15700000
   H     69.42000000    91.06000000     9.38700000
   H     69.59000000    89.97000000    10.77700000
   N     65.63000000    91.70000000    10.43700000
   C     64.45000000    92.41000000     9.96700000
   C     64.45000000    93.82000000    10.52700000
   O     63.58000000    94.65000000    10.26700000
   C     63.14000000    91.73000000    10.33700000
   C     62.95000000    90.36000000     9.67700000
   C     63.38000000    90.27000000     8.21700000
   C     62.86000000    88.94000000     7.69700000
   N     62.95000000    88.99000000     6.22700000
   H     65.62000000    91.45000000    11.41700000
   H     64.48000000    92.49000000     8.88700000
   H     62.37000000    92.44000000    10.03700000
   H     63.00000000    91.63000000    11.40700000
   H     61.93000000    89.97000000     9.68700000
   H     63.58000000    89.62000000    10.17700000
   H     64.42000000    90.51000000     8.00700000
   H     62.86000000    91.04000000     7.64700000
   H     61.82000000    88.81000000     7.98700000
   H     63.39000000    88.11000000     8.17700000
   H     62.70000000    88.13000000     5.76700000
   H     62.32000000    89.67000000     5.82700000
   H     63.88000000    89.30000000     5.98700000
   N     65.53000000    94.26000000    11.18700000
   C     65.68000000    95.65000000    11.58700000
   C     67.09000000    96.17000000    11.34700000
   O     67.30000000    97.38000000    11.30700000
   C     65.15000000    96.06000000    12.95700000
   C     65.83000000    95.27000000    14.06700000
   O     66.34000000    94.15000000    13.84700000
   O     65.73000000    95.80000000    15.18700000
   H     66.24000000    93.66000000    11.57700000
   H     65.13000000    96.31000000    10.91700000
   H     64.07000000    95.93000000    13.01700000
   H     65.29000000    97.13000000    13.08700000
   N     68.01000000    95.25000000    11.05700000
   C     69.33000000    95.75000000    10.73700000
   C     70.24000000    96.19000000    11.86700000
   O     70.64000000    97.35000000    11.92700000
   H     67.81000000    94.26000000    11.17700000
   H     69.24000000    96.62000000    10.08700000
   H     69.77000000    94.89000000    10.22700000
   N     70.42000000    95.30000000    12.84700000
   C     71.35000000    95.34000000    13.95700000
   C     72.53000000    94.38000000    13.83700000
   O     73.47000000    94.50000000    14.61700000
   C     70.68000000    95.14000000    15.30700000
   C     70.01000000    93.77000000    15.38700000
   O     69.09000000    93.66000000    16.22700000
   O     70.18000000    92.82000000    14.60700000
   H     70.07000000    94.36000000    12.71700000
   H     71.84000000    96.31000000    13.98700000
   H     69.87000000    95.87000000    15.29700000
   H     71.28000000    95.38000000    16.18700000
   N     72.55000000    93.52000000    12.81700000
   C     73.54000000    92.50000000    12.57700000
   C     73.34000000    91.14000000    13.23700000
   O     74.24000000    90.34000000    13.45700000
   H     71.77000000    93.55000000    12.17700000
   H     74.51000000    92.92000000    12.84700000
   H     73.54000000    92.20000000    11.52700000
   N     72.10000000    90.88000000    13.64700000
   C     71.70000000    89.67000000    14.34700000
   C     70.28000000    89.17000000    14.13700000
   O     69.38000000    90.00000000    13.94700000
   C     71.93000000    89.85000000    15.84700000
   C     73.30000000    89.36000000    16.30700000
   O     71.86000000    91.20000000    16.27700000
   H     71.42000000    91.62000000    13.55700000
   H     72.32000000    88.87000000    13.96700000
   H     71.08000000    89.36000000    16.32700000
   H     71.22000000    91.54000000    15.65700000
   H     73.23000000    89.07000000    17.35700000
   H     73.63000000    88.54000000    15.67700000
   H     74.10000000    90.10000000    16.26700000
   N     70.00000000    87.87000000    14.26700000
   C     68.63000000    87.40000000    14.25700000
   C     68.18000000    86.87000000    15.60700000
   O     68.89000000    86.03000000    16.16700000
   C     68.58000000    86.33000000    13.15700000
   C     69.15000000    86.71000000    11.79700000
   C     67.20000000    85.70000000    13.03700000
   C     69.40000000    85.61000000    10.76700000
   H     70.78000000    87.29000000    14.52700000
   H     67.94000000    88.16000000    13.87700000
   H     69.18000000    85.51000000    13.54700000
   H     70.14000000    87.16000000    11.87700000
   H     68.43000000    87.43000000    11.39700000
   H     67.38000000    84.80000000    12.44700000
   H     66.89000000    85.37000000    14.03700000
   H     66.35000000    86.25000000    12.63700000
   H     69.86000000    85.93000000     9.83700000
   H     69.84000000    84.71000000    11.20700000
   H     68.42000000    85.22000000    10.51700000
   N     67.07000000    87.39000000    16.13700000
   C     66.38000000    86.99000000    17.34700000
   C     65.11000000    86.20000000    17.05700000
   O     64.67000000    86.28000000    15.90700000
   C     66.05000000    88.10000000    18.34700000
   C     64.95000000    89.04000000    17.86700000
   O     65.71000000    87.51000000    19.58700000
   H     66.59000000    88.14000000    15.65700000
   H     67.10000000    86.43000000    17.92700000
   H     66.95000000    88.69000000    18.53700000
   H     65.63000000    88.15000000    20.29700000
   H     64.13000000    88.55000000    17.34700000
   H     64.48000000    89.48000000    18.74700000
   H     65.45000000    89.91000000    17.44700000
   N     64.58000000    85.35000000    17.92700000
   C     63.53000000    84.36000000    17.73700000
   C     62.29000000    84.91000000    17.03700000
   O     61.65000000    84.19000000    16.27700000
   C     63.04000000    83.69000000    19.01700000
   C     64.09000000    82.97000000    19.85700000
   O     62.64000000    84.76000000    19.84700000
   H     64.94000000    85.40000000    18.86700000
   H     63.87000000    83.55000000    17.09700000
   H     62.27000000    82.99000000    18.70700000
   H     61.99000000    84.35000000    20.42700000
   H     64.64000000    82.21000000    19.30700000
   H     64.85000000    83.66000000    20.21700000
   H     63.73000000    82.56000000    20.79700000
   N     61.91000000    86.17000000    17.24700000
   C     60.86000000    86.78000000    16.45700000
   C     61.22000000    86.90000000    14.97700000
   O     60.31000000    86.92000000    14.14700000
   C     60.71000000    88.21000000    16.95700000
   C     59.39000000    88.87000000    16.56700000
   C     59.01000000    90.07000000    17.42700000
   C     57.64000000    90.61000000    17.01700000
   N     57.49000000    91.96000000    17.56700000
   H     62.32000000    86.66000000    18.02700000
   H     59.96000000    86.17000000    16.52700000
   H     61.57000000    88.78000000    16.60700000
   H     60.83000000    88.16000000    18.03700000
   H     58.52000000    88.25000000    16.76700000
   H     59.39000000    89.12000000    15.49700000
   H     59.82000000    90.79000000    17.30700000
   H     58.97000000    89.74000000    18.46700000
   H     56.91000000    89.98000000    17.51700000
   H     57.51000000    90.67000000    15.93700000
   H     56.72000000    92.41000000    17.08700000
   H     57.36000000    91.98000000    18.56700000
   H     58.25000000    92.55000000    17.25700000
   N     62.49000000    87.10000000    14.61700000
   C     63.02000000    87.18000000    13.26700000
   C     63.32000000    85.79000000    12.70700000
   O     62.99000000    85.45000000    11.57700000
   C     64.23000000    88.10000000    13.28700000
   C     63.95000000    89.35000000    14.10700000
   C     65.23000000    90.17000000    14.10700000
   O     66.23000000    89.70000000    14.69700000
   O     65.30000000    91.30000000    13.57700000
   H     63.13000000    87.17000000    15.38700000
   H     62.35000000    87.71000000    12.58700000
   H     64.44000000    88.29000000    12.23700000
   H     65.10000000    87.56000000    13.65700000
   H     63.74000000    89.17000000    15.16700000
   H     63.03000000    89.83000000    13.76700000
   N     63.89000000    84.94000000    13.55700000
   C     64.43000000    83.63000000    13.22700000
   H     65.40700000    83.51200000    13.69500000
   H     63.75600000    82.85600000    13.59400000
   H     64.53300000    83.54100000    12.14600000
   H     64.17000000    85.32000000    14.45700000
  Ca     67.67000000    92.00000000    14.60000000
   O     68.54000000    90.51000000    17.33000000
   H     69.37000000    90.56000000    17.80000000
   H     67.89000000    90.85000000    17.94000000
   O     65.91000000    92.44000000    16.49000000
   H     65.93000000    92.06000000    17.37000000
   H     65.16000000    93.04000000    16.51000000

Ca 1.00



