%chk=loop3.holoCaM.run73.water2.chk
%nprocshared=20
%mem=10GB
%nosave
#b3lyp/svp scf=(tight,noincore,xqc) Test 
#IOP(5/87=12) Density=Current Pop=(MK,readradii) iop(6/33=2) iop(6/42=6)

loop3.holoCaM.run73.water2 

   0  1 
   C     71.14000000    45.80000000    33.43000000
   C     71.75000000    46.59000000    34.57000000
   O     71.92000000    45.98000000    35.62000000
   H     70.23400000    46.29900000    33.08700000
   H     71.85300000    45.73700000    32.60800000
   H     70.89200000    44.79600000    33.77500000
   N     72.08000000    47.89000000    34.48000000
   C     72.27000000    48.64000000    35.70000000
   C     71.01000000    49.13000000    36.41000000
   O     70.43000000    50.10000000    35.92000000
   C     73.17000000    49.84000000    35.46000000
   C     73.31000000    50.86000000    36.59000000
   O     73.86000000    51.95000000    36.33000000
   O     73.02000000    50.46000000    37.74000000
   H     72.15000000    48.41000000    33.62000000
   H     72.79000000    48.08000000    36.49000000
   H     72.86000000    50.42000000    34.59000000
   H     74.14000000    49.44000000    35.15000000
   N     70.52000000    48.42000000    37.43000000
   C     69.20000000    48.47000000    38.01000000
   C     68.92000000    49.56000000    39.04000000
   O     67.84000000    49.61000000    39.63000000
   C     68.71000000    47.06000000    38.33000000
   C     68.89000000    46.06000000    37.19000000
   C     68.48000000    46.53000000    35.80000000
   C     67.00000000    46.92000000    35.79000000
   N     66.54000000    47.33000000    34.45000000
   H     71.12000000    47.74000000    37.88000000
   H     68.59000000    48.89000000    37.21000000
   H     67.68000000    47.06000000    38.71000000
   H     69.35000000    46.76000000    39.16000000
   H     68.44000000    45.08000000    37.33000000
   H     69.94000000    45.79000000    37.11000000
   H     68.57000000    45.60000000    35.24000000
   H     69.11000000    47.26000000    35.30000000
   H     66.80000000    47.80000000    36.40000000
   H     66.39000000    46.09000000    36.13000000
   H     65.57000000    47.61000000    34.45000000
   H     67.08000000    48.12000000    34.12000000
   H     66.64000000    46.54000000    33.83000000
   N     69.78000000    50.58000000    39.04000000
   C     69.49000000    51.90000000    39.56000000
   C     69.93000000    53.04000000    38.65000000
   O     69.54000000    54.17000000    38.94000000
   C     70.18000000    52.17000000    40.89000000
   C     71.61000000    51.65000000    40.98000000
   O     71.86000000    50.57000000    41.55000000
   O     72.49000000    52.20000000    40.27000000
   H     70.51000000    50.45000000    38.36000000
   H     68.41000000    51.98000000    39.71000000
   H     69.62000000    51.72000000    41.71000000
   H     70.15000000    53.25000000    41.00000000
   N     70.67000000    52.75000000    37.57000000
   C     71.18000000    53.84000000    36.77000000
   C     72.22000000    54.84000000    37.24000000
   O     72.33000000    55.93000000    36.67000000
   H     71.11000000    51.86000000    37.37000000
   H     70.30000000    54.41000000    36.47000000
   H     71.51000000    53.39000000    35.83000000
   N     73.03000000    54.50000000    38.24000000
   C     74.12000000    55.33000000    38.71000000
   C     75.31000000    55.27000000    37.76000000
   O     76.16000000    56.16000000    37.80000000
   C     74.45000000    54.89000000    40.13000000
   C     75.33000000    53.65000000    40.21000000
   N     76.30000000    53.60000000    41.13000000
   O     75.23000000    52.79000000    39.33000000
   H     72.96000000    53.51000000    38.46000000
   H     73.75000000    56.36000000    38.68000000
   H     73.55000000    54.68000000    40.71000000
   H     74.95000000    55.70000000    40.65000000
   H     76.30000000    54.20000000    41.94000000
   H     76.88000000    52.78000000    41.15000000
   N     75.27000000    54.32000000    36.82000000
   C     76.20000000    54.21000000    35.71000000
   C     77.19000000    53.05000000    35.75000000
   O     77.93000000    52.85000000    34.79000000
   H     74.48000000    53.70000000    36.89000000
   H     76.82000000    55.10000000    35.65000000
   H     75.64000000    54.21000000    34.78000000
   N     77.02000000    52.27000000    36.82000000
   C     77.78000000    51.07000000    37.13000000
   C     76.96000000    49.81000000    37.36000000
   O     75.91000000    49.92000000    37.99000000
   C     78.71000000    51.44000000    38.28000000
   C     79.45000000    52.75000000    38.15000000
   C     79.32000000    53.83000000    39.03000000
   C     80.29000000    52.97000000    37.05000000
   C     79.95000000    55.05000000    38.79000000
   C     80.98000000    54.16000000    36.78000000
   C     80.80000000    55.23000000    37.67000000
   O     81.39000000    56.41000000    37.35000000
   H     76.21000000    52.49000000    37.38000000
   H     78.44000000    50.91000000    36.27000000
   H     79.48000000    50.68000000    38.43000000
   H     78.16000000    51.62000000    39.20000000
   H     78.56000000    53.77000000    39.80000000
   H     80.40000000    52.16000000    36.35000000
   H     79.94000000    55.91000000    39.44000000
   H     81.61000000    54.24000000    35.90000000
   H     81.77000000    56.42000000    36.47000000
   N     77.46000000    48.60000000    37.12000000
   C     76.99000000    47.28000000    37.47000000
   C     77.86000000    46.74000000    38.60000000
   O     79.06000000    46.63000000    38.40000000
   C     76.85000000    46.36000000    36.26000000
   C     75.64000000    46.76000000    35.41000000
   C     76.89000000    44.87000000    36.59000000
   C     75.55000000    46.03000000    34.08000000
   H     78.33000000    48.50000000    36.60000000
   H     76.00000000    47.38000000    37.92000000
   H     77.68000000    46.66000000    35.63000000
   H     75.71000000    47.82000000    35.17000000
   H     74.74000000    46.57000000    36.00000000
   H     76.85000000    44.23000000    35.72000000
   H     77.87000000    44.62000000    37.00000000
   H     76.07000000    44.54000000    37.23000000
   H     76.48000000    45.98000000    33.50000000
   H     75.12000000    45.04000000    34.23000000
   H     74.82000000    46.55000000    33.46000000
   N     77.23000000    46.55000000    39.76000000
   C     77.70000000    45.90000000    40.97000000
   C     77.59000000    44.38000000    41.08000000
   O     77.06000000    43.77000000    40.15000000
   C     76.98000000    46.42000000    42.21000000
   O     75.58000000    46.28000000    42.10000000
   H     76.27000000    46.86000000    39.74000000
   H     78.75000000    46.16000000    40.99000000
   H     77.14000000    47.49000000    42.23000000
   H     77.31000000    45.95000000    43.14000000
   H     75.42000000    46.98000000    41.46000000
   N     78.11000000    43.72000000    42.12000000
   C     77.98000000    42.28000000    42.23000000
   C     76.57000000    41.73000000    42.19000000
   O     76.30000000    40.67000000    41.63000000
   C     78.78000000    41.80000000    43.44000000
   H     78.61000000    44.19000000    42.86000000
   H     78.53000000    41.87000000    41.38000000
   H     78.30000000    41.94000000    44.41000000
   H     78.95000000    40.74000000    43.25000000
   H     79.78000000    42.22000000    43.46000000
   N     75.61000000    42.52000000    42.68000000
   C     74.23000000    42.05000000    42.70000000
   C     73.46000000    42.32000000    41.41000000
   O     72.43000000    41.77000000    41.02000000
   C     73.53000000    42.70000000    43.88000000
   H     75.84000000    43.35000000    43.21000000
   H     74.22000000    40.97000000    42.81000000
   H     73.98000000    42.35000000    44.81000000
   H     73.69000000    43.77000000    44.02000000
   H     72.52000000    42.31000000    43.95000000
   N     73.90000000    43.33000000    40.66000000
   C     73.48000000    43.56000000    39.30000000
   C     74.15000000    42.60000000    38.33000000
   O     73.57000000    42.27000000    37.30000000
   C     73.74000000    45.02000000    38.92000000
   C     73.02000000    45.99000000    39.85000000
   C     73.45000000    47.44000000    39.69000000
   O     72.58000000    48.30000000    39.43000000
   O     74.62000000    47.81000000    39.94000000
   H     74.76000000    43.75000000    41.00000000
   H     72.42000000    43.29000000    39.23000000
   H     73.36000000    45.18000000    37.91000000
   H     74.81000000    45.24000000    38.91000000
   H     73.33000000    45.77000000    40.87000000
   H     71.94000000    45.93000000    39.69000000
   N     75.31000000    42.03000000    38.67000000
   C     76.01000000    41.05000000    37.88000000
   H     76.99400000    40.87100000    38.31300000
   H     75.44400000    40.11900000    37.87000000
   H     76.12400000    41.41800000    36.86000000
   H     75.78000000    42.44000000    39.47000000
  Ca     74.17000000    50.29000000    40.00000000
   O     76.94000000    50.18000000    41.22000000
   H     77.89000000    50.17000000    41.25000000
   H     76.66000000    49.96000000    42.11000000
   O     74.56000000    50.38000000    42.79000000
   H     74.08000000    49.92000000    43.49000000
   H     74.25000000    51.28000000    42.84000000

Ca 1.00



