%chk=loop4.holoCaM.run76.water2.chk
%nprocshared=20
%mem=10GB
%nosave
#b3lyp/svp scf=(tight,noincore,xqc) Test 
#IOP(5/87=12) Density=Current Pop=(MK,readradii) iop(6/33=2) iop(6/42=6)

loop4.holoCaM.run76.water2 

   -3  1 
   C     69.76000000    60.56000000    30.30000000
   C     68.98000000    61.67000000    31.00000000
   O     67.84000000    61.93000000    30.63000000
   H     70.73500000    60.44700000    30.77400000
   H     69.20900000    59.62300000    30.37800000
   H     69.89500000    60.81700000    29.24900000
   N     69.62000000    62.22000000    32.03000000
   C     69.06000000    63.36000000    32.74000000
   C     69.33000000    64.75000000    32.18000000
   O     70.44000000    65.18000000    31.91000000
   C     69.50000000    63.27000000    34.20000000
   C     68.95000000    64.36000000    35.11000000
   O     69.79000000    64.78000000    35.94000000
   O     67.93000000    65.03000000    34.87000000
   H     70.53000000    61.83000000    32.24000000
   H     67.98000000    63.23000000    32.72000000
   H     70.59000000    63.23000000    34.16000000
   H     69.25000000    62.29000000    34.60000000
   N     68.31000000    65.58000000    31.97000000
   C     68.38000000    66.85000000    31.28000000
   C     68.34000000    68.09000000    32.16000000
   O     68.65000000    69.19000000    31.70000000
   C     67.42000000    66.90000000    30.10000000
   C     65.98000000    67.17000000    30.52000000
   C     67.72000000    65.65000000    29.29000000
   C     65.08000000    67.22000000    29.29000000
   H     67.38000000    65.22000000    32.17000000
   H     69.38000000    67.02000000    30.88000000
   H     67.74000000    67.73000000    29.46000000
   H     65.81000000    68.09000000    31.08000000
   H     65.56000000    66.34000000    31.10000000
   H     67.36000000    65.67000000    28.26000000
   H     68.80000000    65.51000000    29.25000000
   H     67.33000000    64.74000000    29.73000000
   H     65.11000000    66.35000000    28.64000000
   H     64.06000000    67.40000000    29.63000000
   H     65.32000000    68.19000000    28.84000000
   N     67.91000000    67.89000000    33.41000000
   C     67.49000000    68.96000000    34.30000000
   C     68.24000000    68.87000000    35.62000000
   O     68.18000000    69.79000000    36.44000000
   C     65.98000000    69.02000000    34.49000000
   C     65.39000000    67.67000000    34.85000000
   O     65.56000000    67.27000000    36.02000000
   O     64.76000000    66.99000000    34.00000000
   H     67.65000000    66.93000000    33.60000000
   H     67.77000000    69.94000000    33.93000000
   H     65.57000000    69.53000000    33.61000000
   H     65.82000000    69.72000000    35.31000000
   N     69.16000000    67.92000000    35.81000000
   C     70.18000000    67.92000000    36.84000000
   C     69.69000000    67.32000000    38.15000000
   O     70.24000000    67.63000000    39.21000000
   H     69.17000000    67.07000000    35.26000000
   H     70.58000000    68.90000000    37.08000000
   H     71.04000000    67.44000000    36.38000000
   N     68.61000000    66.54000000    38.11000000
   C     68.15000000    65.86000000    39.31000000
   C     68.79000000    64.50000000    39.57000000
   O     68.75000000    63.97000000    40.68000000
   C     66.65000000    65.85000000    39.57000000
   C     65.91000000    64.89000000    38.65000000
   O     64.74000000    64.52000000    38.86000000
   O     66.47000000    64.47000000    37.61000000
   H     68.28000000    66.32000000    37.18000000
   H     68.44000000    66.44000000    40.18000000
   H     66.17000000    66.83000000    39.53000000
   H     66.45000000    65.46000000    40.57000000
   N     69.54000000    64.04000000    38.56000000
   C     70.20000000    62.76000000    38.65000000
   C     69.26000000    61.62000000    38.25000000
   O     69.55000000    60.47000000    38.58000000
   H     69.44000000    64.45000000    37.64000000
   H     70.57000000    62.64000000    39.67000000
   H     71.04000000    62.78000000    37.96000000
   N     68.14000000    61.94000000    37.60000000
   C     67.07000000    61.00000000    37.34000000
   C     66.31000000    61.21000000    36.03000000
   O     66.24000000    62.33000000    35.53000000
   C     65.96000000    60.92000000    38.38000000
   C     66.62000000    60.24000000    39.58000000
   C     65.76000000    59.77000000    40.75000000
   N     66.40000000    59.15000000    41.75000000
   O     64.54000000    59.73000000    40.71000000
   H     67.91000000    62.92000000    37.54000000
   H     67.54000000    60.03000000    37.20000000
   H     65.23000000    60.18000000    38.06000000
   H     65.50000000    61.88000000    38.62000000
   H     67.46000000    60.83000000    39.92000000
   H     67.09000000    59.31000000    39.27000000
   H     67.40000000    58.98000000    41.77000000
   H     65.94000000    58.75000000    42.55000000
   N     65.67000000    60.20000000    35.44000000
   C     64.83000000    60.24000000    34.26000000
   C     63.37000000    60.05000000    34.66000000
   O     62.97000000    59.11000000    35.34000000
   C     65.16000000    59.43000000    33.01000000
   C     66.59000000    59.75000000    32.60000000
   C     64.97000000    57.92000000    33.12000000
   H     65.79000000    59.30000000    35.90000000
   H     64.79000000    61.28000000    33.96000000
   H     64.60000000    59.83000000    32.16000000
   H     66.67000000    59.46000000    31.55000000
   H     66.82000000    60.80000000    32.78000000
   H     67.25000000    59.17000000    33.25000000
   H     65.44000000    57.49000000    34.00000000
   H     63.90000000    57.77000000    33.27000000
   H     65.30000000    57.50000000    32.17000000
   N     62.57000000    60.95000000    34.08000000
   C     61.13000000    60.92000000    34.08000000
   C     60.58000000    60.33000000    32.78000000
   O     61.38000000    60.08000000    31.88000000
   C     60.77000000    62.37000000    34.35000000
   C     60.50000000    63.18000000    33.09000000
   N     61.55000000    63.74000000    32.48000000
   O     59.35000000    63.28000000    32.68000000
   H     63.02000000    61.61000000    33.46000000
   H     60.71000000    60.36000000    34.92000000
   H     61.50000000    62.89000000    34.98000000
   H     59.78000000    62.34000000    34.82000000
   H     62.45000000    63.36000000    32.75000000
   H     61.49000000    64.35000000    31.68000000
   N     59.27000000    60.23000000    32.56000000
   C     58.73000000    59.83000000    31.28000000
   C     59.24000000    60.64000000    30.10000000
   O     59.72000000    60.07000000    29.12000000
   C     57.21000000    59.82000000    31.40000000
   C     56.54000000    59.31000000    30.14000000
   C     56.60000000    57.95000000    29.81000000
   C     55.97000000    60.22000000    29.24000000
   C     55.93000000    57.52000000    28.66000000
   C     55.41000000    59.83000000    28.01000000
   C     55.30000000    58.44000000    27.79000000
   O     54.66000000    58.08000000    26.64000000
   H     58.62000000    60.40000000    33.31000000
   H     59.07000000    58.81000000    31.11000000
   H     56.78000000    60.81000000    31.54000000
   H     56.93000000    59.17000000    32.24000000
   H     57.21000000    57.28000000    30.39000000
   H     55.97000000    61.28000000    29.44000000
   H     55.79000000    56.47000000    28.45000000
   H     55.18000000    60.63000000    27.32000000
   H     54.34000000    58.86000000    26.19000000
   N     59.22000000    61.98000000    30.17000000
   C     59.66000000    62.81000000    29.07000000
   C     61.17000000    62.82000000    28.83000000
   O     61.60000000    63.29000000    27.78000000
   C     59.07000000    64.21000000    29.24000000
   C     57.55000000    64.31000000    29.20000000
   C     57.08000000    65.76000000    29.15000000
   O     56.80000000    66.44000000    30.16000000
   O     56.93000000    66.27000000    28.03000000
   H     59.04000000    62.46000000    31.04000000
   H     59.18000000    62.41000000    28.17000000
   H     59.48000000    64.84000000    28.45000000
   H     59.43000000    64.57000000    30.20000000
   H     57.15000000    63.92000000    30.14000000
   H     57.18000000    63.65000000    28.42000000
   N     61.94000000    62.29000000    29.78000000
   C     63.30000000    61.92000000    29.46000000
   C     63.40000000    60.47000000    28.99000000
   O     64.25000000    60.23000000    28.13000000
   C     64.21000000    61.94000000    30.69000000
   C     64.67000000    63.36000000    30.97000000
   C     64.90000000    63.71000000    32.43000000
   O     64.07000000    63.20000000    33.22000000
   O     65.90000000    64.38000000    32.79000000
   H     61.61000000    62.09000000    30.71000000
   H     63.76000000    62.56000000    28.71000000
   H     65.09000000    61.30000000    30.57000000
   H     63.58000000    61.64000000    31.53000000
   H     64.02000000    64.15000000    30.58000000
   H     65.60000000    63.46000000    30.41000000
   N     62.60000000    59.52000000    29.47000000
   C     62.59000000    58.13000000    29.07000000
   H     62.62900000    58.06500000    27.98300000
   H     63.45600000    57.62300000    29.49500000
   H     61.67700000    57.65400000    29.42900000
   H     62.00000000    59.85000000    30.22000000
  Ca     65.35000000    64.70000000    35.29000000
   O     63.81000000    63.19000000    36.94000000
   H     63.10000000    62.62000000    37.23000000
   H     64.10000000    63.65000000    37.72000000
   O     62.64000000    65.28000000    35.15000000
   H     62.40000000    65.72000000    34.34000000
   H     61.81000000    64.97000000    35.51000000

Ca 1.00



