%chk=loop1.apoCaM-CA-Ng.Init293.run88.water4.chk
%nprocshared=20
%mem=10GB
%nosave
#b3lyp/svp scf=(tight,noincore,xqc) Test 
#IOP(5/87=12) Density=Current Pop=(MK,readradii) iop(6/33=2) iop(6/42=6)

loop1.apoCaM-CA-Ng.Init293.run88.water4 

   0  1 
   C     75.98000000   109.17000000    19.40000000
   C     76.49000000   110.59000000    19.21000000
   O     76.54000000   111.06000000    18.08000000
   H     75.01000000   109.06500000    18.91400000
   H     76.68600000   108.46700000    18.95700000
   H     75.87700000   108.96000000    20.46500000
   N     76.89000000   111.15000000    20.35000000
   C     77.37000000   112.51000000    20.48000000
   C     78.78000000   112.81000000    20.00000000
   O     79.27000000   113.92000000    20.16000000
   C     77.25000000   113.00000000    21.93000000
   C     78.02000000   112.18000000    22.95000000
   O     77.69000000   110.97000000    22.96000000
   O     78.82000000   112.73000000    23.74000000
   H     76.98000000   110.58000000    21.18000000
   H     76.63000000   113.13000000    19.96000000
   H     76.22000000   113.02000000    22.28000000
   H     77.61000000   114.02000000    21.83000000
   N     79.56000000   111.87000000    19.44000000
   C     80.94000000   112.08000000    19.05000000
   C     81.00000000   112.43000000    17.57000000
   O     80.86000000   111.45000000    16.84000000
   C     81.81000000   110.92000000    19.52000000
   C     82.18000000   110.95000000    21.00000000
   C     81.09000000   110.45000000    21.94000000
   C     81.46000000   110.44000000    23.42000000
   N     80.24000000   110.14000000    24.18000000
   H     79.19000000   110.94000000    19.31000000
   H     81.29000000   112.89000000    19.69000000
   H     82.71000000   110.76000000    18.93000000
   H     81.29000000   109.98000000    19.36000000
   H     82.36000000   111.99000000    21.30000000
   H     83.00000000   110.25000000    21.16000000
   H     80.76000000   109.44000000    21.70000000
   H     80.32000000   111.22000000    21.93000000
   H     81.92000000   111.39000000    23.70000000
   H     82.16000000   109.63000000    23.60000000
   H     79.42000000   110.72000000    24.03000000
   H     79.91000000   109.23000000    23.89000000
   H     80.41000000   110.02000000    25.17000000
   N     81.45000000   113.61000000    17.16000000
   C     81.85000000   114.73000000    17.99000000
   C     81.58000000   116.08000000    17.35000000
   O     82.48000000   116.88000000    17.13000000
   C     83.24000000   114.70000000    18.61000000
   C     84.37000000   114.26000000    17.68000000
   O     84.16000000   114.04000000    16.47000000
   O     85.52000000   114.18000000    18.15000000
   H     81.42000000   113.74000000    16.16000000
   H     81.31000000   114.72000000    18.94000000
   H     83.22000000   114.02000000    19.46000000
   H     83.56000000   115.67000000    18.99000000
   N     80.37000000   116.38000000    16.85000000
   C     79.18000000   115.56000000    16.79000000
   C     78.01000000   116.23000000    16.09000000
   O     78.08000000   117.40000000    15.72000000
   H     80.18000000   117.36000000    16.70000000
   H     78.95000000   115.15000000    17.77000000
   H     79.45000000   114.62000000    16.30000000
   N     76.83000000   115.63000000    15.91000000
   C     76.41000000   114.32000000    16.39000000
   C     75.07000000   114.32000000    17.11000000
   O     74.21000000   115.17000000    16.90000000
   C     76.33000000   113.38000000    15.19000000
   C     77.65000000   113.16000000    14.48000000
   O     78.65000000   112.65000000    15.04000000
   O     77.73000000   113.43000000    13.26000000
   H     76.06000000   116.22000000    15.62000000
   H     77.21000000   113.91000000    17.01000000
   H     75.52000000   113.66000000    14.52000000
   H     76.00000000   112.37000000    15.45000000
   N     74.90000000   113.29000000    17.94000000
   C     73.59000000   112.89000000    18.41000000
   C     72.68000000   112.27000000    17.36000000
   O     71.46000000   112.36000000    17.43000000
   H     75.69000000   112.67000000    18.06000000
   H     73.13000000   113.74000000    18.90000000
   H     73.76000000   112.12000000    19.17000000
   N     73.23000000   111.63000000    16.32000000
   C     72.60000000   110.82000000    15.30000000
   C     73.61000000   109.81000000    14.76000000
   O     74.82000000   109.99000000    14.86000000
   C     71.80000000   111.52000000    14.21000000
   C     72.63000000   112.51000000    13.40000000
   O     70.68000000   112.16000000    14.79000000
   H     74.23000000   111.59000000    16.22000000
   H     71.83000000   110.25000000    15.83000000
   H     71.41000000   110.83000000    13.46000000
   H     70.87000000   112.27000000    15.72000000
   H     72.76000000   113.33000000    14.10000000
   H     73.61000000   112.13000000    13.12000000
   H     72.06000000   112.91000000    12.56000000
   N     73.14000000   108.70000000    14.19000000
   C     73.96000000   107.62000000    13.68000000
   C     73.77000000   107.29000000    12.20000000
   O     72.67000000   106.89000000    11.83000000
   C     73.90000000   106.45000000    14.66000000
   C     74.64000000   105.17000000    14.31000000
   C     72.43000000   106.20000000    15.01000000
   C     76.16000000   105.27000000    14.36000000
   H     72.14000000   108.66000000    14.13000000
   H     75.00000000   107.94000000    13.71000000
   H     74.30000000   106.73000000    15.63000000
   H     74.31000000   104.81000000    13.34000000
   H     74.31000000   104.45000000    15.07000000
   H     71.82000000   106.13000000    14.11000000
   H     72.25000000   105.30000000    15.60000000
   H     71.99000000   107.00000000    15.60000000
   H     76.53000000   105.52000000    15.36000000
   H     76.60000000   104.29000000    14.18000000
   H     76.36000000   105.94000000    13.53000000
   N     74.81000000   107.33000000    11.36000000
   C     74.80000000   106.89000000     9.98000000
   C     75.93000000   105.92000000     9.69000000
   O     76.00000000   105.37000000     8.59000000
   C     74.74000000   108.09000000     9.04000000
   C     75.97000000   109.00000000     9.12000000
   O     73.61000000   108.85000000     9.41000000
   H     75.66000000   107.78000000    11.68000000
   H     73.91000000   106.26000000     9.95000000
   H     74.66000000   107.86000000     7.98000000
   H     72.93000000   108.21000000     9.62000000
   H     76.81000000   108.45000000     8.70000000
   H     75.71000000   109.97000000     8.70000000
   H     76.22000000   109.19000000    10.16000000
   N     76.83000000   105.63000000    10.63000000
   C     78.04000000   104.86000000    10.41000000
   C     79.02000000   105.42000000     9.40000000
   O     78.67000000   106.31000000     8.64000000
   C     77.67000000   103.38000000    10.24000000
   C     77.13000000   102.81000000    11.55000000
   O     78.65000000   102.49000000     9.76000000
   H     76.69000000   106.07000000    11.53000000
   H     78.56000000   104.91000000    11.37000000
   H     76.84000000   103.42000000     9.53000000
   H     78.74000000   101.83000000    10.45000000
   H     77.82000000   102.53000000    12.34000000
   H     76.44000000   103.48000000    12.07000000
   H     76.55000000   101.92000000    11.30000000
   N     80.29000000   105.00000000     9.41000000
   C     81.28000000   105.24000000     8.38000000
   C     82.72000000   105.33000000     8.87000000
   O     83.58000000   105.72000000     8.09000000
   C     81.08000000   104.22000000     7.26000000
   C     79.83000000   104.31000000     6.39000000
   C     79.56000000   103.16000000     5.43000000
   C     80.46000000   103.20000000     4.20000000
   N     80.11000000   104.45000000     3.50000000
   H     80.44000000   104.28000000    10.11000000
   H     81.07000000   106.21000000     7.94000000
   H     81.21000000   103.18000000     7.54000000
   H     81.92000000   104.33000000     6.56000000
   H     79.70000000   105.27000000     5.89000000
   H     79.01000000   104.24000000     7.10000000
   H     78.49000000   103.24000000     5.22000000
   H     79.73000000   102.25000000     6.00000000
   H     80.32000000   102.29000000     3.63000000
   H     81.49000000   103.27000000     4.56000000
   H     80.41000000   104.30000000     2.55000000
   H     79.13000000   104.67000000     3.53000000
   H     80.61000000   105.23000000     3.92000000
   N     83.20000000   105.30000000    10.12000000
   C     82.60000000   105.15000000    11.43000000
   C     81.98000000   103.78000000    11.67000000
   O     80.86000000   103.57000000    12.13000000
   C     81.72000000   106.31000000    11.86000000
   C     81.32000000   106.33000000    13.34000000
   C     80.78000000   107.71000000    13.70000000
   O     81.57000000   108.65000000    13.94000000
   O     79.56000000   107.95000000    13.67000000
   H     84.15000000   105.62000000    10.17000000
   H     83.37000000   105.20000000    12.21000000
   H     80.79000000   106.42000000    11.31000000
   H     82.28000000   107.23000000    11.67000000
   H     82.06000000   106.05000000    14.09000000
   H     80.51000000   105.61000000    13.47000000
   N     82.72000000   102.78000000    11.18000000
   C     82.40000000   101.37000000    11.16000000
   H     81.45300000   101.22000000    10.64200000
   H     83.18800000   100.82500000    10.64000000
   H     82.31600000   101.00100000    12.18200000
   H     83.65000000   102.99000000    10.85000000
  Ca     79.78000000   110.42500000    14.60000000
   O     81.84000000   112.15500000    13.66000000
   H     82.59000000   112.73500000    13.80000000
   H     81.55000000   112.33500000    12.77000000
   O     80.28000000   108.80500000    16.67000000
   H     80.00000000   108.87500000    17.59000000
   H     81.07000000   108.26500000    16.70000000
   O     79.72000000   110.88500000    11.92000000
   H     80.12000000   110.29500000    11.27000000
   H     79.30000000   111.56500000    11.40000000
   O     77.37000000   110.06500000    15.74000000
   H     77.19000000   110.41500000    16.61000000
   H     76.51000000   109.92500000    15.35000000

Ca 1.00



