%chk=loop4.holoCaM-CaMKII.run38.water2.chk
%nprocshared=20
%mem=10GB
%nosave
#b3lyp/svp scf=(tight,noincore,xqc) Test 
#IOP(5/87=12) Density=Current Pop=(MK,readradii) iop(6/33=2) iop(6/42=6)

loop4.holoCaM-CaMKII.run38.water2 

   -3  1 
   C    105.59400000    66.06000000     6.57600000
   C    106.02400000    67.07000000     7.63600000
   O    105.53400000    68.19000000     7.73600000
   H    104.70800000    66.43000000     6.06100000
   H    106.40100000    65.92200000     5.85600000
   H    105.36500000    65.10700000     7.05300000
   N    106.93400000    66.73000000     8.55600000
   C    107.52400000    67.57000000     9.57600000
   C    108.51400000    68.52000000     8.91600000
   O    109.48400000    68.02000000     8.34600000
   C    108.25400000    66.75000000    10.62600000
   C    108.74400000    67.56000000    11.81600000
   O    108.56400000    68.79000000    11.87600000
   O    109.51400000    66.91000000    12.55600000
   H    107.32400000    65.80000000     8.53600000
   H    106.71400000    68.13000000    10.04600000
   H    109.08400000    66.19000000    10.18600000
   H    107.53400000    66.10000000    11.12600000
   N    108.44400000    69.83000000     9.12600000
   C    109.44400000    70.71000000     8.55600000
   C    110.39400000    71.48000000     9.45600000
   O    111.28400000    72.20000000     9.00600000
   C    108.75400000    71.70000000     7.61600000
   C    108.24400000    72.92000000     8.35600000
   C    107.72400000    70.98000000     6.75600000
   C    107.23400000    73.86000000     7.70600000
   H    107.65400000    70.25000000     9.61600000
   H    110.21400000    70.13000000     8.04600000
   H    109.44400000    72.09000000     6.86600000
   H    109.06400000    73.52000000     8.75600000
   H    107.73400000    72.64000000     9.28600000
   H    107.55400000    71.63000000     5.90600000
   H    108.10400000    70.05000000     6.32600000
   H    106.82400000    70.73000000     7.31600000
   H    107.76400000    74.36000000     6.89600000
   H    106.37400000    73.23000000     7.46600000
   H    106.88400000    74.60000000     8.42600000
   N    110.30400000    71.30000000    10.77600000
   C    111.30400000    71.78000000    11.71600000
   C    111.89400000    70.67000000    12.57600000
   O    112.93400000    70.98000000    13.16600000
   C    110.66400000    72.84000000    12.61600000
   C    109.40400000    72.56000000    13.41600000
   O    108.82400000    73.53000000    13.95600000
   O    108.97400000    71.39000000    13.53600000
   H    109.58400000    70.66000000    11.06600000
   H    112.10400000    72.25000000    11.15600000
   H    110.57400000    73.75000000    12.02600000
   H    111.49400000    73.03000000    13.30600000
   N    111.42400000    69.43000000    12.49600000
   C    112.16400000    68.26000000    12.93600000
   C    111.94400000    67.86000000    14.38600000
   O    112.74400000    67.12000000    14.95600000
   H    110.56400000    69.31000000    11.97600000
   H    113.23400000    68.26000000    12.74600000
   H    111.75400000    67.39000000    12.42600000
   N    110.97400000    68.45000000    15.09600000
   C    110.57400000    68.03000000    16.42600000
   C    109.96400000    66.64000000    16.42600000
   O    109.69400000    66.13000000    17.51600000
   C    109.52400000    69.02000000    16.93600000
   C    108.35400000    69.23000000    15.98600000
   O    107.85400000    70.37000000    16.11600000
   O    108.01400000    68.43000000    15.08600000
   H    110.35400000    69.11000000    14.64600000
   H    111.45400000    68.06000000    17.08600000
   H    110.01400000    69.93000000    17.27600000
   H    109.11400000    68.58000000    17.84600000
   N    109.75400000    65.97000000    15.29600000
   C    109.30400000    64.60000000    15.17600000
   C    107.78400000    64.48000000    15.24600000
   O    107.26400000    63.42000000    15.56600000
   H    109.95400000    66.45000000    14.43600000
   H    109.74400000    63.97000000    15.95600000
   H    109.58400000    64.24000000    14.18600000
   N    107.04400000    65.58000000    15.05600000
   C    105.60400000    65.72000000    15.09600000
   C    105.20400000    66.47000000    13.83600000
   O    105.80400000    67.48000000    13.45600000
   C    105.16400000    66.36000000    16.40600000
   C    105.67400000    65.63000000    17.64600000
   C    104.83400000    65.85000000    18.89600000
   N    105.50400000    65.90000000    20.05600000
   O    103.61400000    65.95000000    18.88600000
   H    107.60400000    66.40000000    14.89600000
   H    105.13400000    64.74000000    15.11600000
   H    104.08400000    66.39000000    16.32600000
   H    105.32400000    67.44000000    16.47600000
   H    106.66400000    66.06000000    17.75600000
   H    105.76400000    64.55000000    17.52600000
   H    106.51400000    66.02000000    20.08600000
   H    104.94400000    66.18000000    20.84600000
   N    103.97400000    66.25000000    13.35600000
   C    103.50400000    66.96000000    12.18600000
   C    102.31400000    67.77000000    12.65600000
   O    101.38400000    67.16000000    13.17600000
   C    103.15400000    65.91000000    11.13600000
   C    102.71400000    66.68000000     9.88600000
   C    104.23400000    64.89000000    10.82600000
   H    103.44400000    65.44000000    13.64600000
   H    104.22400000    67.69000000    11.81600000
   H    102.22400000    65.40000000    11.40600000
   H    102.42400000    65.93000000     9.14600000
   H    101.85400000    67.30000000    10.11600000
   H    103.47400000    67.26000000     9.37600000
   H    105.23400000    65.31000000    10.87600000
   H    104.15400000    64.23000000    11.68600000
   H    104.05400000    64.20000000     9.99600000
   N    102.36400000    69.11000000    12.58600000
   C    101.21400000    69.94000000    12.88600000
   C    100.25400000    70.04000000    11.71600000
   O    100.51400000    69.60000000    10.60600000
   C    101.65400000    71.31000000    13.39600000
   C    100.60400000    72.40000000    13.56600000
   N     99.63400000    72.13000000    14.44600000
   O    100.46400000    73.37000000    12.81600000
   H    103.18400000    69.59000000    12.24600000
   H    100.63400000    69.52000000    13.71600000
   H    102.38400000    71.76000000    12.72600000
   H    102.12400000    71.26000000    14.37600000
   H     99.68400000    71.25000000    14.92600000
   H     98.92400000    72.82000000    14.62600000
   N     99.05400000    70.54000000    12.02600000
   C     98.01400000    70.71000000    11.02600000
   C     98.55400000    71.58000000     9.89600000
   O     98.35400000    71.22000000     8.73600000
   C     96.73400000    71.39000000    11.48600000
   C     95.63400000    71.61000000    10.48600000
   C     95.08400000    70.49000000     9.84600000
   C     95.29400000    72.89000000    10.02600000
   C     94.17400000    70.61000000     8.78600000
   C     94.44400000    73.07000000     8.92600000
   C     93.85400000    71.92000000     8.36600000
   O     92.91400000    72.11000000     7.39600000
   H     98.81400000    70.60000000    13.00600000
   H     97.78400000    69.72000000    10.63600000
   H     97.01400000    72.38000000    11.84600000
   H     96.38400000    70.84000000    12.36600000
   H     95.30400000    69.45000000    10.04600000
   H     95.81400000    73.74000000    10.44600000
   H     93.69400000    69.76000000     8.31600000
   H     94.03400000    74.03000000     8.65600000
   H     92.70400000    73.03000000     7.26600000
   N     99.28400000    72.66000000    10.13600000
   C     99.89400000    73.46000000     9.09600000
   C    100.94400000    72.68000000     8.32600000
   O    101.05400000    72.84000000     7.10600000
   C    100.55400000    74.72000000     9.66600000
   C    100.83400000    75.95000000     8.81600000
   C    101.45400000    76.96000000     9.77600000
   O    100.78400000    78.00000000     9.94600000
   O    102.52400000    76.79000000    10.40600000
   H     99.29400000    72.92000000    11.11600000
   H     99.06400000    73.76000000     8.44600000
   H    101.48400000    74.41000000    10.14600000
   H     99.82400000    75.05000000    10.39600000
   H     99.90400000    76.30000000     8.36600000
   H    101.53400000    75.78000000     7.99600000
   N    101.60400000    71.76000000     9.02600000
   C    102.54400000    70.91000000     8.31600000
   C    101.89400000    69.83000000     7.46600000
   O    102.44400000    69.41000000     6.45600000
   C    103.60400000    70.40000000     9.27600000
   C    104.23400000    71.53000000    10.09600000
   C    105.25400000    70.94000000    11.06600000
   O    106.49400000    71.08000000    10.98600000
   O    104.82400000    70.24000000    12.00600000
   H    101.31400000    71.47000000     9.95600000
   H    103.02400000    71.58000000     7.59600000
   H    104.41400000    70.18000000     8.58600000
   H    103.14400000    69.62000000     9.88600000
   H    103.42400000    71.99000000    10.65600000
   H    104.73400000    72.29000000     9.48600000
   N    100.72400000    69.36000000     7.89600000
   C    100.08400000    68.29000000     7.15600000
   H     99.15800000    68.65800000     6.71400000
   H    100.75100000    67.94400000     6.36600000
   H     99.86000000    67.46400000     7.83100000
   H    100.30400000    69.62000000     8.77600000
  Ca    106.95400000    70.04000000    13.45000000
   O    105.00400000    70.19000000    15.38000000
   H    104.60400000    69.75000000    16.13000000
   H    105.08400000    71.11000000    15.66000000
   O    106.50400000    72.66000000    14.59000000
   H    107.25400000    73.24000000    14.45000000
   H    105.74400000    73.20000000    14.36000000

Ca 1.00



