%chk=loop3.holoCaM.run94.water2.chk
%nprocshared=20
%mem=10GB
%nosave
#b3lyp/svp scf=(tight,noincore,xqc) Test 
#IOP(5/87=12) Density=Current Pop=(MK,readradii) iop(6/33=2) iop(6/42=6)

loop3.holoCaM.run94.water2 

   0  1 
   C     48.30000000    50.22000000    12.18000000
   C     49.54000000    50.92000000    12.70000000
   O     50.54000000    50.20000000    12.72000000
   H     47.50900000    50.95300000    12.02100000
   H     48.53000000    49.72400000    11.23700000
   H     47.96700000    49.48000000    12.90800000
   N     49.51000000    52.21000000    13.04000000
   C     50.55000000    52.93000000    13.74000000
   C     50.75000000    52.27000000    15.10000000
   O     49.82000000    51.85000000    15.78000000
   C     50.02000000    54.35000000    13.93000000
   C     51.03000000    55.35000000    14.48000000
   O     52.24000000    55.05000000    14.53000000
   O     50.63000000    56.49000000    14.79000000
   H     48.69000000    52.74000000    12.77000000
   H     51.38000000    53.02000000    13.04000000
   H     49.26000000    54.30000000    14.71000000
   H     49.61000000    54.68000000    12.98000000
   N     52.01000000    52.07000000    15.48000000
   C     52.43000000    51.28000000    16.62000000
   C     52.79000000    51.95000000    17.93000000
   O     53.41000000    51.32000000    18.78000000
   C     53.67000000    50.54000000    16.13000000
   C     53.25000000    49.47000000    15.12000000
   C     52.50000000    48.34000000    15.82000000
   C     52.37000000    47.24000000    14.77000000
   N     51.21000000    47.59000000    13.94000000
   H     52.74000000    52.51000000    14.94000000
   H     51.59000000    50.62000000    16.82000000
   H     54.31000000    50.12000000    16.90000000
   H     54.33000000    51.26000000    15.64000000
   H     54.12000000    49.03000000    14.63000000
   H     52.54000000    49.87000000    14.40000000
   H     51.52000000    48.71000000    16.11000000
   H     53.11000000    47.91000000    16.62000000
   H     52.23000000    46.26000000    15.22000000
   H     53.29000000    47.25000000    14.18000000
   H     50.39000000    47.65000000    14.52000000
   H     51.26000000    48.48000000    13.46000000
   H     51.02000000    46.92000000    13.21000000
   N     52.39000000    53.21000000    18.13000000
   C     52.73000000    53.98000000    19.32000000
   C     51.77000000    55.15000000    19.43000000
   O     51.39000000    55.50000000    20.54000000
   C     54.16000000    54.52000000    19.35000000
   C     54.65000000    55.30000000    18.13000000
   O     53.88000000    55.73000000    17.24000000
   O     55.88000000    55.47000000    18.05000000
   H     51.86000000    53.78000000    17.49000000
   H     52.63000000    53.32000000    20.18000000
   H     54.84000000    53.71000000    19.61000000
   H     54.29000000    55.19000000    20.19000000
   N     51.29000000    55.65000000    18.29000000
   C     50.30000000    56.68000000    18.06000000
   C     50.88000000    58.06000000    17.76000000
   O     50.21000000    59.04000000    18.07000000
   H     51.62000000    55.31000000    17.39000000
   H     49.62000000    56.85000000    18.89000000
   H     49.72000000    56.36000000    17.20000000
   N     52.13000000    58.10000000    17.29000000
   C     52.80000000    59.35000000    17.00000000
   C     52.27000000    59.87000000    15.67000000
   O     52.55000000    61.04000000    15.41000000
   C     54.30000000    59.20000000    17.19000000
   C     54.97000000    58.60000000    15.96000000
   N     56.18000000    58.99000000    15.56000000
   O     54.34000000    57.83000000    15.24000000
   H     52.61000000    57.21000000    17.21000000
   H     52.49000000    59.97000000    17.84000000
   H     54.56000000    58.61000000    18.07000000
   H     54.69000000    60.21000000    17.34000000
   H     56.80000000    59.63000000    16.04000000
   H     56.58000000    58.54000000    14.74000000
   N     51.48000000    59.19000000    14.83000000
   C     51.04000000    59.66000000    13.53000000
   C     51.89000000    59.55000000    12.27000000
   O     51.49000000    60.10000000    11.24000000
   H     51.23000000    58.27000000    15.15000000
   H     50.77000000    60.71000000    13.65000000
   H     50.19000000    59.07000000    13.19000000
   N     52.90000000    58.69000000    12.43000000
   C     53.86000000    58.38000000    11.40000000
   C     54.20000000    56.89000000    11.31000000
   O     54.17000000    56.24000000    12.35000000
   C     55.18000000    59.11000000    11.63000000
   C     55.06000000    60.60000000    11.41000000
   C     54.79000000    61.18000000    10.16000000
   C     55.06000000    61.41000000    12.55000000
   C     54.58000000    62.56000000    10.05000000
   C     54.90000000    62.80000000    12.43000000
   C     54.65000000    63.40000000    11.18000000
   O     54.14000000    64.66000000    11.07000000
   H     52.87000000    58.21000000    13.32000000
   H     53.56000000    58.79000000    10.44000000
   H     55.88000000    58.70000000    10.90000000
   H     55.53000000    58.91000000    12.64000000
   H     54.77000000    60.65000000     9.22000000
   H     55.29000000    60.95000000    13.49000000
   H     54.18000000    63.03000000     9.17000000
   H     54.94000000    63.40000000    13.32000000
   H     53.85000000    64.90000000    11.95000000
   N     54.58000000    56.36000000    10.15000000
   C     54.84000000    54.96000000     9.87000000
   C     56.08000000    54.81000000     9.00000000
   O     56.12000000    55.34000000     7.89000000
   C     53.62000000    54.29000000     9.24000000
   C     52.68000000    53.98000000    10.41000000
   C     53.88000000    52.99000000     8.48000000
   C     51.30000000    53.47000000    10.01000000
   H     54.55000000    56.98000000     9.35000000
   H     55.00000000    54.47000000    10.83000000
   H     53.16000000    54.95000000     8.51000000
   H     52.46000000    54.95000000    10.86000000
   H     53.11000000    53.30000000    11.14000000
   H     54.59000000    53.21000000     7.69000000
   H     54.16000000    52.20000000     9.18000000
   H     53.00000000    52.66000000     7.92000000
   H     50.97000000    53.87000000     9.06000000
   H     51.39000000    52.38000000     9.95000000
   H     50.59000000    53.71000000    10.80000000
   N     57.10000000    54.09000000     9.46000000
   C     58.30000000    53.65000000     8.78000000
   C     58.19000000    52.31000000     8.06000000
   O     57.17000000    51.64000000     8.23000000
   C     59.47000000    53.61000000     9.76000000
   O     59.45000000    52.49000000    10.61000000
   H     56.97000000    53.67000000    10.37000000
   H     58.59000000    54.31000000     7.96000000
   H     59.38000000    54.47000000    10.42000000
   H     60.40000000    53.64000000     9.19000000
   H     60.07000000    52.66000000    11.32000000
   N     59.20000000    51.92000000     7.29000000
   C     59.37000000    50.62000000     6.66000000
   C     59.34000000    49.47000000     7.66000000
   O     58.46000000    48.62000000     7.59000000
   C     60.59000000    50.59000000     5.75000000
   H     60.00000000    52.52000000     7.15000000
   H     58.59000000    50.50000000     5.91000000
   H     60.81000000    49.60000000     5.36000000
   H     60.59000000    51.25000000     4.88000000
   H     61.49000000    50.89000000     6.29000000
   N     60.13000000    49.50000000     8.74000000
   C     60.00000000    48.60000000     9.87000000
   C     58.63000000    48.65000000    10.52000000
   O     58.25000000    47.61000000    11.06000000
   C     61.12000000    48.84000000    10.88000000
   H     60.81000000    50.24000000     8.80000000
   H     60.07000000    47.55000000     9.59000000
   H     60.93000000    49.78000000    11.41000000
   H     61.09000000    47.98000000    11.54000000
   H     62.13000000    48.93000000    10.48000000
   N     57.88000000    49.75000000    10.54000000
   C     56.54000000    49.87000000    11.09000000
   C     55.47000000    49.15000000    10.27000000
   O     54.72000000    48.30000000    10.74000000
   C     56.33000000    51.34000000    11.41000000
   C     55.31000000    51.42000000    12.55000000
   C     55.21000000    52.84000000    13.08000000
   O     54.12000000    53.12000000    13.64000000
   O     56.02000000    53.76000000    12.83000000
   H     58.19000000    50.50000000     9.93000000
   H     56.44000000    49.32000000    12.03000000
   H     55.87000000    51.87000000    10.57000000
   H     57.22000000    51.90000000    11.69000000
   H     55.68000000    50.68000000    13.26000000
   H     54.34000000    51.12000000    12.16000000
   N     55.62000000    49.34000000     8.96000000
   C     54.94000000    48.54000000     7.95000000
   H     54.02800000    49.04900000     7.63800000
   H     55.59500000    48.40800000     7.08900000
   H     54.68700000    47.56500000     8.36700000
   H     56.28000000    49.99000000     8.58000000
  Ca     54.72000000    55.33000000    14.73000000
   O     56.87000000    56.73000000    13.79000000
   H     57.72000000    56.79000000    14.23000000
   H     57.06000000    56.94000000    12.87000000
   O     56.11000000    53.45000000    15.95000000
   H     56.27000000    52.53000000    15.73000000
   H     56.88000000    53.71000000    16.45000000

Ca 1.00



