%chk=loop3.apoCaM-CA-Ng.Init295.run56.water2.chk
%nprocshared=20
%mem=10GB
%nosave
#b3lyp/svp scf=(tight,noincore,xqc) Test 
#IOP(5/87=12) Density=Current Pop=(MK,readradii) iop(6/33=2) iop(6/42=6)

loop3.apoCaM-CA-Ng.Init295.run56.water2 

   0  1 
   C     78.15000000    53.37000000    30.49000000
   C     77.89000000    51.99000000    31.09000000
   O     76.77000000    51.87000000    31.59000000
   H     79.14500000    53.39100000    30.04600000
   H     77.40500000    53.57900000    29.72200000
   H     78.08700000    54.12500000    31.27300000
   N     78.74000000    50.97000000    31.00000000
   C     78.41000000    49.66000000    31.52000000
   C     79.59000000    49.07000000    32.30000000
   O     80.70000000    49.25000000    31.81000000
   C     77.92000000    48.68000000    30.46000000
   C     77.63000000    47.28000000    30.98000000
   O     76.46000000    46.88000000    31.14000000
   O     78.54000000    46.44000000    31.15000000
   H     79.51000000    50.99000000    30.35000000
   H     77.70000000    49.78000000    32.34000000
   H     78.72000000    48.63000000    29.72000000
   H     77.02000000    49.02000000    29.94000000
   N     79.27000000    48.45000000    33.44000000
   C     80.23000000    47.84000000    34.33000000
   C     81.26000000    46.89000000    33.74000000
   O     82.36000000    46.76000000    34.28000000
   C     79.54000000    47.11000000    35.49000000
   C     78.48000000    47.91000000    36.24000000
   C     77.98000000    47.04000000    37.38000000
   C     77.46000000    47.92000000    38.51000000
   N     76.26000000    48.73000000    38.26000000
   H     78.29000000    48.41000000    33.68000000
   H     80.92000000    48.56000000    34.76000000
   H     80.35000000    46.74000000    36.12000000
   H     79.12000000    46.19000000    35.09000000
   H     77.71000000    48.27000000    35.55000000
   H     78.96000000    48.80000000    36.64000000
   H     78.80000000    46.50000000    37.87000000
   H     77.22000000    46.35000000    37.01000000
   H     78.31000000    48.54000000    38.78000000
   H     77.20000000    47.19000000    39.28000000
   H     76.00000000    49.00000000    39.19000000
   H     76.53000000    49.51000000    37.67000000
   H     75.52000000    48.19000000    37.84000000
   N     80.98000000    46.17000000    32.66000000
   C     81.90000000    45.49000000    31.77000000
   C     82.05000000    46.12000000    30.39000000
   O     83.08000000    45.88000000    29.75000000
   C     81.63000000    44.00000000    31.54000000
   C     80.14000000    43.78000000    31.33000000
   O     79.64000000    43.98000000    30.20000000
   O     79.36000000    43.43000000    32.24000000
   H     80.03000000    46.27000000    32.33000000
   H     82.88000000    45.68000000    32.20000000
   H     82.03000000    43.40000000    32.36000000
   H     82.20000000    43.57000000    30.72000000
   N     81.10000000    46.95000000    29.96000000
   C     81.24000000    47.65000000    28.70000000
   C     80.52000000    46.95000000    27.56000000
   O     80.45000000    47.52000000    26.47000000
   H     80.29000000    47.12000000    30.53000000
   H     82.27000000    47.76000000    28.35000000
   H     80.81000000    48.65000000    28.75000000
   N     79.82000000    45.84000000    27.79000000
   C     78.79000000    45.30000000    26.92000000
   C     77.44000000    45.75000000    27.45000000
   O     77.17000000    45.37000000    28.59000000
   C     78.86000000    43.78000000    26.93000000
   C     77.74000000    43.04000000    26.20000000
   N     77.86000000    41.71000000    26.08000000
   O     76.85000000    43.64000000    25.62000000
   H     79.89000000    45.44000000    28.71000000
   H     78.96000000    45.68000000    25.91000000
   H     78.82000000    43.39000000    27.96000000
   H     79.82000000    43.49000000    26.50000000
   H     78.70000000    41.18000000    26.26000000
   H     77.14000000    41.30000000    25.51000000
   N     76.57000000    46.33000000    26.62000000
   C     75.22000000    46.78000000    26.91000000
   C     74.11000000    45.83000000    27.32000000
   O     73.03000000    46.25000000    27.74000000
   H     76.76000000    46.31000000    25.63000000
   H     74.80000000    47.42000000    26.13000000
   H     75.31000000    47.47000000    27.75000000
   N     74.34000000    44.53000000    27.18000000
   C     73.59000000    43.52000000    27.91000000
   C     73.82000000    43.61000000    29.41000000
   O     74.85000000    44.15000000    29.80000000
   C     73.78000000    42.14000000    27.29000000
   C     73.06000000    42.05000000    25.96000000
   C     73.67000000    42.29000000    24.72000000
   C     71.68000000    41.80000000    25.98000000
   C     72.88000000    42.41000000    23.57000000
   C     70.85000000    41.88000000    24.86000000
   C     71.48000000    42.26000000    23.65000000
   O     70.66000000    42.57000000    22.61000000
   H     75.24000000    44.22000000    26.83000000
   H     72.53000000    43.75000000    27.78000000
   H     73.50000000    41.38000000    28.01000000
   H     74.85000000    41.96000000    27.19000000
   H     74.73000000    42.46000000    24.68000000
   H     71.31000000    41.51000000    26.95000000
   H     73.26000000    42.70000000    22.61000000
   H     69.78000000    41.79000000    24.85000000
   H     69.73000000    42.65000000    22.84000000
   N     72.88000000    43.15000000    30.23000000
   C     72.76000000    43.38000000    31.66000000
   C     73.84000000    42.71000000    32.49000000
   O     75.02000000    42.69000000    32.13000000
   C     72.52000000    44.86000000    31.94000000
   C     72.40000000    45.08000000    33.44000000
   C     71.17000000    45.28000000    31.34000000
   C     72.20000000    46.53000000    33.88000000
   H     72.10000000    42.74000000    29.74000000
   H     71.82000000    42.88000000    31.89000000
   H     73.34000000    45.51000000    31.65000000
   H     73.35000000    44.82000000    33.92000000
   H     71.64000000    44.42000000    33.87000000
   H     71.08000000    46.36000000    31.46000000
   H     71.11000000    44.98000000    30.29000000
   H     70.35000000    44.81000000    31.87000000
   H     72.46000000    46.64000000    34.93000000
   H     72.83000000    47.11000000    33.20000000
   H     71.16000000    46.73000000    33.63000000
   N     73.41000000    42.24000000    33.66000000
   C     74.23000000    41.54000000    34.64000000
   C     73.61000000    40.39000000    35.42000000
   O     74.36000000    39.53000000    35.88000000
   C     74.60000000    42.59000000    35.68000000
   O     73.55000000    43.15000000    36.43000000
   H     72.46000000    42.39000000    33.99000000
   H     75.08000000    41.11000000    34.12000000
   H     75.28000000    43.28000000    35.17000000
   H     75.31000000    42.00000000    36.26000000
   H     73.93000000    43.57000000    37.20000000
   N     72.29000000    40.30000000    35.60000000
   C     71.61000000    39.17000000    36.21000000
   C     72.23000000    38.78000000    37.55000000
   O     72.54000000    37.60000000    37.74000000
   C     71.41000000    38.05000000    35.20000000
   H     71.73000000    41.04000000    35.20000000
   H     70.62000000    39.60000000    36.37000000
   H     71.00000000    37.16000000    35.68000000
   H     70.60000000    38.20000000    34.48000000
   H     72.34000000    37.91000000    34.64000000
   N     72.42000000    39.60000000    38.58000000
   C     72.06000000    41.00000000    38.68000000
   C     70.72000000    41.28000000    39.34000000
   O     70.38000000    40.66000000    40.35000000
   C     73.19000000    41.58000000    39.53000000
   H     72.74000000    39.17000000    39.43000000
   H     72.26000000    41.52000000    37.74000000
   H     73.22000000    41.16000000    40.54000000
   H     74.15000000    41.39000000    39.05000000
   H     73.04000000    42.66000000    39.54000000
   N     69.88000000    42.23000000    38.92000000
   C     69.96000000    42.94000000    37.66000000
   C     68.63000000    43.23000000    36.97000000
   O     68.73000000    43.65000000    35.82000000
   C     70.70000000    44.26000000    37.87000000
   C     70.47000000    45.05000000    39.15000000
   C     71.35000000    46.27000000    39.37000000
   O     70.94000000    47.45000000    39.26000000
   O     72.57000000    46.14000000    39.58000000
   H     69.01000000    42.29000000    39.44000000
   H     70.40000000    42.31000000    36.89000000
   H     70.56000000    44.96000000    37.04000000
   H     71.76000000    44.05000000    37.85000000
   H     70.67000000    44.39000000    39.99000000
   H     69.44000000    45.42000000    39.12000000
   N     67.48000000    43.14000000    37.64000000
   C     66.17000000    43.62000000    37.26000000
   H     65.48500000    43.50900000    38.10100000
   H     66.23500000    44.67200000    36.98100000
   H     65.80200000    43.04100000    36.41300000
   H     67.56000000    42.69000000    38.54000000
  Ca     77.06000000    44.33000000    30.99000000
   O     77.24000000    41.87000000    30.32000000
   H     77.72000000    41.36000000    29.67000000
   H     76.60000000    41.26000000    30.68000000
   O     76.84000000    44.83000000    33.73000000
   H     76.38000000    45.62000000    34.02000000
   H     77.24000000    44.49000000    34.53000000

Ca 1.00



