%chk=loop2.apoCaM-CA-Ng.Init31.run72.water7.chk
%nprocshared=20
%mem=10GB
%nosave
#b3lyp/svp scf=(tight,noincore,xqc) Test 
#IOP(5/87=12) Density=Current Pop=(MK,readradii) iop(6/33=2) iop(6/42=6)

loop2.apoCaM-CA-Ng.Init31.run72.water7 

   -2  1 
   C     92.30000000    58.98000000     7.37000000
   C     91.94000000    57.50000000     7.39000000
   O     92.55000000    56.71000000     8.09000000
   H     93.25300000    59.11500000     6.85800000
   H     91.52400000    59.53600000     6.84500000
   H     92.38300000    59.34800000     8.39300000
   N     91.20000000    56.96000000     6.41000000
   C     90.28000000    57.59000000     5.48000000
   C     90.33000000    56.94000000     4.10000000
   O     90.08000000    55.75000000     3.94000000
   C     88.85000000    57.55000000     5.99000000
   C     88.48000000    56.21000000     6.59000000
   O     88.15000000    55.22000000     5.90000000
   O     88.67000000    56.18000000     7.83000000
   H     91.13000000    55.96000000     6.46000000
   H     90.60000000    58.63000000     5.40000000
   H     88.23000000    57.89000000     5.15000000
   H     88.73000000    58.37000000     6.70000000
   N     90.58000000    57.82000000     3.12000000
   C     90.51000000    57.53000000     1.71000000
   C     89.17000000    57.06000000     1.16000000
   O     88.89000000    55.87000000     1.19000000
   C     91.66000000    56.64000000     1.26000000
   H     90.65000000    58.77000000     3.47000000
   H     90.80000000    58.47000000     1.23000000
   H     92.53000000    57.30000000     1.12000000
   H     91.72000000    55.76000000     1.90000000
   H     91.45000000    56.24000000     0.27000000
   N     88.27000000    58.00000000     0.87000000
   C     86.86000000    57.73000000     0.67000000
   C     86.69000000    56.75000000    -0.48000000
   O     87.40000000    56.90000000    -1.46000000
   C     85.95000000    58.96000000     0.68000000
   C     86.38000000    59.97000000    -0.37000000
   O     86.77000000    61.09000000     0.03000000
   O     86.29000000    59.70000000    -1.59000000
   H     88.61000000    58.94000000     0.75000000
   H     86.66000000    57.27000000     1.64000000
   H     85.99000000    59.45000000     1.66000000
   H     84.92000000    58.65000000     0.53000000
   N     85.80000000    55.76000000    -0.30000000
   C     85.49000000    54.64000000    -1.16000000
   C     84.09000000    54.04000000    -1.10000000
   O     83.10000000    54.59000000    -0.63000000
   H     85.09000000    55.79000000     0.41000000
   H     86.11000000    53.87000000    -0.71000000
   H     85.87000000    54.80000000    -2.17000000
   N     84.03000000    52.77000000    -1.51000000
   C     82.87000000    51.91000000    -1.66000000
   C     82.78000000    50.98000000    -0.46000000
   O     81.84000000    50.20000000    -0.40000000
   C     82.98000000    51.22000000    -3.01000000
   C     83.28000000    52.14000000    -4.19000000
   N     84.27000000    51.78000000    -5.00000000
   O     82.66000000    53.17000000    -4.45000000
   H     84.87000000    52.43000000    -1.96000000
   H     81.95000000    52.49000000    -1.60000000
   H     82.11000000    50.64000000    -3.34000000
   H     83.85000000    50.57000000    -2.98000000
   H     84.85000000    50.97000000    -4.83000000
   H     84.50000000    52.41000000    -5.76000000
   N     83.75000000    50.99000000     0.46000000
   C     83.81000000    50.19000000     1.66000000
   C     84.09000000    48.71000000     1.41000000
   O     84.48000000    48.29000000     0.32000000
   H     84.42000000    51.74000000     0.35000000
   H     82.87000000    50.19000000     2.21000000
   H     84.63000000    50.51000000     2.31000000
   N     83.97000000    47.82000000     2.40000000
   C     83.20000000    47.89000000     3.62000000
   C     83.86000000    47.30000000     4.87000000
   O     83.50000000    47.78000000     5.94000000
   C     81.81000000    47.27000000     3.52000000
   C     80.85000000    47.99000000     2.58000000
   O     81.98000000    45.95000000     3.08000000
   H     84.35000000    46.91000000     2.16000000
   H     83.10000000    48.94000000     3.86000000
   H     81.26000000    47.22000000     4.46000000
   H     81.31000000    45.32000000     3.35000000
   H     79.79000000    47.91000000     2.82000000
   H     81.12000000    49.04000000     2.45000000
   H     80.85000000    47.56000000     1.57000000
   N     85.00000000    46.62000000     4.77000000
   C     85.98000000    46.28000000     5.78000000
   C     85.46000000    45.27000000     6.80000000
   O     84.59000000    45.55000000     7.63000000
   C     86.62000000    47.51000000     6.40000000
   C     87.27000000    48.46000000     5.39000000
   C     87.63000000    47.29000000     7.52000000
   C     88.44000000    47.88000000     4.60000000
   H     85.31000000    46.44000000     3.82000000
   H     86.82000000    45.85000000     5.23000000
   H     85.77000000    47.98000000     6.89000000
   H     87.59000000    49.41000000     5.80000000
   H     86.52000000    48.74000000     4.65000000
   H     88.41000000    46.61000000     7.19000000
   H     88.08000000    48.27000000     7.68000000
   H     87.09000000    46.88000000     8.37000000
   H     89.00000000    48.65000000     4.06000000
   H     89.21000000    47.47000000     5.26000000
   H     88.06000000    47.10000000     3.94000000
   N     85.96000000    44.04000000     6.91000000
   C     87.13000000    43.52000000     6.23000000
   C     88.33000000    43.69000000     7.16000000
   O     89.32000000    44.27000000     6.73000000
   C     86.77000000    42.07000000     5.95000000
   C     86.08000000    41.24000000     7.03000000
   O     85.99000000    40.00000000     6.87000000
   O     85.82000000    41.74000000     8.14000000
   H     85.50000000    43.44000000     7.58000000
   H     87.28000000    44.01000000     5.27000000
   H     87.68000000    41.61000000     5.56000000
   H     86.10000000    42.09000000     5.09000000
   N     88.24000000    43.22000000     8.41000000
   C     89.37000000    43.06000000     9.30000000
   C     89.83000000    41.62000000     9.49000000
   O     89.05000000    40.73000000     9.15000000
   C     89.03000000    43.72000000    10.64000000
   C     87.98000000    43.00000000    11.45000000
   C     86.63000000    43.32000000    11.33000000
   C     88.39000000    42.13000000    12.47000000
   C     85.67000000    42.66000000    12.11000000
   C     87.44000000    41.46000000    13.26000000
   C     86.08000000    41.68000000    13.03000000
   H     87.40000000    42.70000000     8.61000000
   H     90.26000000    43.51000000     8.88000000
   H     88.56000000    44.64000000    10.32000000
   H     89.92000000    43.91000000    11.24000000
   H     86.38000000    43.94000000    10.48000000
   H     89.45000000    42.00000000    12.60000000
   H     84.64000000    42.76000000    11.81000000
   H     87.73000000    40.68000000    13.95000000
   H     85.26000000    41.14000000    13.47000000
   N     90.96000000    41.27000000    10.10000000
   C     92.01000000    42.18000000    10.52000000
   C     92.95000000    42.55000000     9.38000000
   O     92.88000000    41.99000000     8.29000000
   C     92.67000000    41.52000000    11.72000000
   C     92.65000000    40.05000000    11.32000000
   C     91.49000000    39.94000000    10.33000000
   H     91.65000000    43.15000000    10.88000000
   H     93.71000000    41.81000000    11.91000000
   H     92.07000000    41.77000000    12.60000000
   H     93.53000000    39.77000000    10.75000000
   H     92.55000000    39.42000000    12.20000000
   H     91.82000000    39.57000000     9.36000000
   H     90.68000000    39.32000000    10.72000000
   N     93.75000000    43.60000000     9.59000000
   C     94.72000000    44.11000000     8.64000000
   C     94.80000000    45.61000000     8.40000000
   O     95.53000000    46.00000000     7.49000000
   C     96.08000000    43.59000000     9.10000000
   C     96.21000000    42.08000000     9.30000000
   C     97.66000000    41.80000000     9.67000000
   O     97.84000000    41.62000000    10.90000000
   O     98.57000000    41.80000000     8.81000000
   H     93.74000000    44.03000000    10.51000000
   H     94.59000000    43.70000000     7.64000000
   H     96.46000000    44.12000000     9.97000000
   H     96.77000000    43.88000000     8.30000000
   H     95.89000000    41.60000000     8.38000000
   H     95.55000000    41.79000000    10.12000000
   N     94.21000000    46.62000000     9.05000000
   C     93.26000000    46.64000000    10.15000000
   H     92.31300000    46.21300000     9.81900000
   H     93.65200000    46.05300000    10.98000000
   H     93.10000000    47.66800000    10.47400000
   H     94.50000000    47.54000000     8.76000000
  Ca     87.21000000    58.36000000    -3.62500000
   O     89.30000000    59.25000000    -2.17500000
   H     90.18000000    59.12000000    -1.81500000
   H     88.98000000    60.04000000    -1.74500000
   O     88.94000000    59.20000000    -5.47500000
   H     89.88000000    59.02000000    -5.37500000
   H     88.81000000    59.28000000    -6.41500000
   O     87.54000000    61.40000000    -3.68500000
   H     87.58000000    62.11000000    -4.31500000
   H     88.24000000    61.59000000    -3.05500000
   O     84.85000000    57.60000000    -3.03500000
   H     84.26000000    56.95000000    -3.41500000
   H     84.29000000    58.11000000    -2.44500000
   O     89.31000000    56.64000000    -3.89500000
   H     89.63000000    55.80000000    -4.23500000
   H     89.99000000    57.27000000    -4.13500000
   O     86.67000000    56.35000000    -5.27500000
   H     87.00000000    55.52000000    -5.62500000
   H     86.10000000    56.69000000    -5.96500000
   O     85.28000000    59.71000000    -5.35500000
   H     84.52000000    59.19000000    -5.58500000
   H     85.18000000    60.52000000    -5.85500000

Ca 1.00



