%chk=loop2.apoCaM-CA-Ng.Init295.run53.water4.chk
%nprocshared=20
%mem=10GB
%nosave
#b3lyp/svp scf=(tight,noincore,xqc) Test 
#IOP(5/87=12) Density=Current Pop=(MK,readradii) iop(6/33=2) iop(6/42=6)

loop2.apoCaM-CA-Ng.Init295.run53.water4 

   -2  1 
   C     87.60000000    74.16000000    18.44000000
   C     89.11000000    74.16000000    18.28000000
   O     89.66000000    75.08000000    17.68000000
   H     87.13100000    74.08000000    17.45900000
   H     87.29900000    73.31200000    19.05600000
   H     87.28500000    75.08700000    18.91800000
   N     89.78000000    73.18000000    18.90000000
   C     91.16000000    72.72000000    18.83000000
   C     92.15000000    73.70000000    19.44000000
   O     93.27000000    73.33000000    19.81000000
   C     91.08000000    71.38000000    19.56000000
   C     92.30000000    70.49000000    19.39000000
   O     92.97000000    70.53000000    18.33000000
   O     92.60000000    69.66000000    20.27000000
   H     89.27000000    72.73000000    19.64000000
   H     91.35000000    72.45000000    17.80000000
   H     90.18000000    70.87000000    19.20000000
   H     90.98000000    71.54000000    20.63000000
   N     91.82000000    74.96000000    19.75000000
   C     92.60000000    75.96000000    20.44000000
   C     91.67000000    77.04000000    20.98000000
   O     90.49000000    77.15000000    20.66000000
   C     93.61000000    76.56000000    19.47000000
   H     90.95000000    75.33000000    19.41000000
   H     93.26000000    75.57000000    21.22000000
   H     94.27000000    77.23000000    20.02000000
   H     94.27000000    75.87000000    18.94000000
   H     93.07000000    77.04000000    18.66000000
   N     92.11000000    77.92000000    21.89000000
   C     93.30000000    78.00000000    22.72000000
   C     93.27000000    77.19000000    24.01000000
   O     92.19000000    76.78000000    24.45000000
   C     93.68000000    79.45000000    22.99000000
   C     93.32000000    80.47000000    21.91000000
   O     94.19000000    80.68000000    21.04000000
   O     92.25000000    81.11000000    21.97000000
   H     91.30000000    78.36000000    22.29000000
   H     94.18000000    77.64000000    22.19000000
   H     94.74000000    79.44000000    23.24000000
   H     92.98000000    79.64000000    23.80000000
   N     94.46000000    76.88000000    24.52000000
   C     94.56000000    75.98000000    25.65000000
   C     94.32000000    74.54000000    25.24000000
   O     94.46000000    74.13000000    24.09000000
   H     95.30000000    77.17000000    24.04000000
   H     93.88000000    76.25000000    26.45000000
   H     95.56000000    76.01000000    26.10000000
   N     93.78000000    73.68000000    26.12000000
   C     93.52000000    73.82000000    27.53000000
   C     92.37000000    74.76000000    27.83000000
   O     92.29000000    75.36000000    28.90000000
   C     93.24000000    72.44000000    28.13000000
   C     94.44000000    71.51000000    28.15000000
   N     95.45000000    72.04000000    28.85000000
   O     94.66000000    70.55000000    27.42000000
   H     93.68000000    72.73000000    25.78000000
   H     94.39000000    74.21000000    28.07000000
   H     92.50000000    71.93000000    27.51000000
   H     92.89000000    72.55000000    29.16000000
   H     95.29000000    72.87000000    29.39000000
   H     96.26000000    71.45000000    28.96000000
   N     91.38000000    74.97000000    26.95000000
   C     90.05000000    75.48000000    27.20000000
   C     90.10000000    76.98000000    27.44000000
   O     89.20000000    77.52000000    28.09000000
   H     91.67000000    74.61000000    26.05000000
   H     89.74000000    74.95000000    28.11000000
   H     89.53000000    75.36000000    26.25000000
   N     91.18000000    77.63000000    27.00000000
   C     91.39000000    79.06000000    27.14000000
   C     90.48000000    79.83000000    26.20000000
   O     90.89000000    80.72000000    25.45000000
   C     92.86000000    79.46000000    27.04000000
   C     93.05000000    80.88000000    27.57000000
   O     93.69000000    78.59000000    27.78000000
   H     91.91000000    77.16000000    26.50000000
   H     90.98000000    79.40000000    28.09000000
   H     93.07000000    79.43000000    25.97000000
   H     94.56000000    78.85000000    27.48000000
   H     92.97000000    80.89000000    28.65000000
   H     93.93000000    81.34000000    27.10000000
   H     92.33000000    81.56000000    27.12000000
   N     89.20000000    79.46000000    26.12000000
   C     88.26000000    80.04000000    25.18000000
   C     87.75000000    81.40000000    25.62000000
   O     87.67000000    81.81000000    26.78000000
   C     87.21000000    78.98000000    24.84000000
   C     87.84000000    77.61000000    24.66000000
   C     86.11000000    78.88000000    25.90000000
   C     88.91000000    77.57000000    23.57000000
   H     88.90000000    78.87000000    26.88000000
   H     88.83000000    80.34000000    24.31000000
   H     86.74000000    79.20000000    23.88000000
   H     87.02000000    77.02000000    24.26000000
   H     88.18000000    77.06000000    25.54000000
   H     85.74000000    79.88000000    26.11000000
   H     85.33000000    78.21000000    25.55000000
   H     86.55000000    78.45000000    26.79000000
   H     88.62000000    78.25000000    22.77000000
   H     89.85000000    78.01000000    23.89000000
   H     89.06000000    76.58000000    23.14000000
   N     87.06000000    82.06000000    24.69000000
   C     86.40000000    83.33000000    24.90000000
   C     84.90000000    83.17000000    24.75000000
   O     84.35000000    82.17000000    24.31000000
   C     87.05000000    84.34000000    23.95000000
   C     87.09000000    83.95000000    22.48000000
   O     88.04000000    83.19000000    22.21000000
   O     86.40000000    84.54000000    21.63000000
   H     86.96000000    81.62000000    23.78000000
   H     86.57000000    83.62000000    25.93000000
   H     88.04000000    84.54000000    24.35000000
   H     86.61000000    85.34000000    24.00000000
   N     84.27000000    84.31000000    25.08000000
   C     82.85000000    84.57000000    24.96000000
   C     82.20000000    84.02000000    23.71000000
   O     81.34000000    83.15000000    23.78000000
   C     82.08000000    84.08000000    26.18000000
   C     81.04000000    85.11000000    26.53000000
   C     79.73000000    84.99000000    26.05000000
   C     81.37000000    86.10000000    27.46000000
   C     78.80000000    85.99000000    26.35000000
   C     80.39000000    86.99000000    27.90000000
   C     79.12000000    86.97000000    27.29000000
   H     84.77000000    85.03000000    25.58000000
   H     82.65000000    85.64000000    24.92000000
   H     82.86000000    84.04000000    26.95000000
   H     81.67000000    83.07000000    26.17000000
   H     79.43000000    84.13000000    25.47000000
   H     82.37000000    86.10000000    27.89000000
   H     77.78000000    85.90000000    26.01000000
   H     80.63000000    87.72000000    28.66000000
   H     78.38000000    87.71000000    27.54000000
   N     82.56000000    84.55000000    22.53000000
   C     81.91000000    84.15000000    21.30000000
   C     82.33000000    82.77000000    20.84000000
   O     81.64000000    82.22000000    19.98000000
   C     82.15000000    85.22000000    20.23000000
   C     83.18000000    86.15000000    20.86000000
   C     83.16000000    85.85000000    22.36000000
   H     80.83000000    84.10000000    21.44000000
   H     82.51000000    84.72000000    19.33000000
   H     81.22000000    85.75000000    20.06000000
   H     84.17000000    85.80000000    20.58000000
   H     83.11000000    87.22000000    20.68000000
   H     84.19000000    85.90000000    22.69000000
   H     82.54000000    86.65000000    22.77000000
   N     83.38000000    82.13000000    21.36000000
   C     83.98000000    80.87000000    20.94000000
   C     83.39000000    79.73000000    21.76000000
   O     83.14000000    78.66000000    21.20000000
   C     85.50000000    80.95000000    21.03000000
   C     86.22000000    79.79000000    20.34000000
   C     87.65000000    80.17000000    19.99000000
   O     88.45000000    80.45000000    20.91000000
   O     87.99000000    80.22000000    18.79000000
   H     83.89000000    82.59000000    22.10000000
   H     83.61000000    80.63000000    19.94000000
   H     85.72000000    81.09000000    22.09000000
   H     85.80000000    81.86000000    20.52000000
   H     85.64000000    79.39000000    19.51000000
   H     86.15000000    79.00000000    21.09000000
   N     83.09000000    79.89000000    23.05000000
   C     82.22000000    79.11000000    23.90000000
   H     81.26200000    78.96200000    23.40100000
   H     82.67900000    78.14200000    24.09900000
   H     82.06100000    79.63800000    24.84000000
   H     83.34000000    80.77000000    23.47000000
  Ca     90.18000000    82.41000000    21.28000000
   O     90.55000000    82.85000000    24.02000000
   H     90.53000000    82.06000000    24.55000000
   H     90.74000000    83.55000000    24.64000000
   O     90.52000000    81.18000000    18.89000000
   H     91.09000000    81.00000000    18.14000000
   H     89.70000000    80.73000000    18.67000000
   O     88.92000000    83.88000000    19.50000000
   H     89.20000000    84.79000000    19.40000000
   H     88.08000000    83.84000000    19.05000000
   O     92.65000000    82.90000000    19.90000000
   H     93.18000000    82.89000000    19.11000000
   H     93.13000000    82.34000000    20.52000000

Ca 1.00



