%chk=loop1.apoCaM-CA-Ng.Init295.run83.water5.chk
%nprocshared=20
%mem=10GB
%nosave
#b3lyp/svp scf=(tight,noincore,xqc) Test 
#IOP(5/87=12) Density=Current Pop=(MK,readradii) iop(6/33=2) iop(6/42=6)

loop1.apoCaM-CA-Ng.Init295.run83.water5 

   0  1 
   C     -3.11000000     9.10000000    70.85000000
   C     -3.01000000    10.45000000    70.15000000
   O     -3.97000000    11.21000000    70.06000000
   H     -4.13900000     8.74400000    70.80600000
   H     -2.45700000     8.38300000    70.35300000
   H     -2.80700000     9.20700000    71.89200000
   N     -1.77000000    10.84000000    69.85000000
   C     -1.43000000    12.02000000    69.08000000
   C     -0.28000000    11.69000000    68.14000000
   O      0.50000000    10.76000000    68.30000000
   C     -1.12000000    13.15000000    70.07000000
   C     -1.08000000    14.57000000    69.53000000
   O     -0.88000000    15.44000000    70.41000000
   O     -1.08000000    14.94000000    68.34000000
   H     -1.00000000    10.24000000    70.12000000
   H     -2.30000000    12.44000000    68.57000000
   H     -0.16000000    12.94000000    70.54000000
   H     -1.95000000    13.14000000    70.78000000
   N      0.04000000    12.63000000    67.25000000
   C      1.02000000    12.54000000    66.19000000
   C      2.38000000    13.11000000    66.60000000
   O      3.37000000    12.70000000    66.00000000
   C      0.56000000    13.38000000    65.00000000
   C     -0.84000000    13.11000000    64.45000000
   C     -1.15000000    13.89000000    63.17000000
   C     -2.64000000    13.73000000    62.89000000
   N     -3.01000000    14.07000000    61.51000000
   H     -0.56000000    13.45000000    67.30000000
   H      1.12000000    11.52000000    65.84000000
   H      1.25000000    13.23000000    64.16000000
   H      0.63000000    14.44000000    65.24000000
   H     -1.50000000    13.53000000    65.20000000
   H     -1.01000000    12.05000000    64.29000000
   H     -0.59000000    13.47000000    62.34000000
   H     -0.92000000    14.95000000    63.22000000
   H     -3.29000000    14.23000000    63.60000000
   H     -2.90000000    12.68000000    63.03000000
   H     -2.74000000    15.02000000    61.33000000
   H     -2.55000000    13.41000000    60.89000000
   H     -4.02000000    13.98000000    61.44000000
   N      2.54000000    13.96000000    67.61000000
   C      3.82000000    14.59000000    67.88000000
   C      3.76000000    15.09000000    69.31000000
   O      2.83000000    15.84000000    69.62000000
   C      3.94000000    15.80000000    66.96000000
   C      5.33000000    16.42000000    67.08000000
   O      6.16000000    16.06000000    67.94000000
   O      5.62000000    17.42000000    66.39000000
   H      1.76000000    14.37000000    68.11000000
   H      4.54000000    13.80000000    67.67000000
   H      3.16000000    16.52000000    67.22000000
   H      3.84000000    15.53000000    65.91000000
   N      4.65000000    14.65000000    70.20000000
   C      4.80000000    15.18000000    71.54000000
   C      6.26000000    15.09000000    71.99000000
   O      6.99000000    14.17000000    71.62000000
   H      5.36000000    13.97000000    69.97000000
   H      4.23000000    14.53000000    72.20000000
   H      4.43000000    16.20000000    71.62000000
   N      6.69000000    16.10000000    72.74000000
   C      8.04000000    16.09000000    73.26000000
   C      8.07000000    16.45000000    74.74000000
   O      7.17000000    17.13000000    75.22000000
   C      8.98000000    16.99000000    72.47000000
   C      9.08000000    16.57000000    71.02000000
   O      9.65000000    15.51000000    70.67000000
   O      8.53000000    17.23000000    70.11000000
   H      6.12000000    16.87000000    73.07000000
   H      8.55000000    15.12000000    73.28000000
   H      9.91000000    16.89000000    73.02000000
   H      8.58000000    18.01000000    72.54000000
   N      9.13000000    16.06000000    75.45000000
   C      9.35000000    16.32000000    76.86000000
   C      8.90000000    15.12000000    77.69000000
   O      9.65000000    14.59000000    78.50000000
   H      9.89000000    15.69000000    74.90000000
   H      8.94000000    17.23000000    77.29000000
   H     10.42000000    16.49000000    76.96000000
   N      7.67000000    14.63000000    77.47000000
   C      7.07000000    13.42000000    77.98000000
   C      7.09000000    13.17000000    79.48000000
   O      7.09000000    14.11000000    80.26000000
   C      5.60000000    13.44000000    77.55000000
   C      4.69000000    14.38000000    78.33000000
   O      5.50000000    13.81000000    76.19000000
   H      7.17000000    15.17000000    76.78000000
   H      7.61000000    12.56000000    77.57000000
   H      5.13000000    12.49000000    77.80000000
   H      4.60000000    13.59000000    75.93000000
   H      5.06000000    15.40000000    78.22000000
   H      3.64000000    14.23000000    78.10000000
   H      4.86000000    14.39000000    79.40000000
   N      7.14000000    11.91000000    79.93000000
   C      6.81000000    11.52000000    81.29000000
   C      7.90000000    10.63000000    81.88000000
   O      7.83000000    10.30000000    83.06000000
   C      5.43000000    10.87000000    81.23000000
   C      5.21000000     9.63000000    80.37000000
   C      4.36000000    11.93000000    81.01000000
   C      3.87000000     8.90000000    80.38000000
   H      7.31000000    11.14000000    79.31000000
   H      6.76000000    12.40000000    81.92000000
   H      5.33000000    10.57000000    82.28000000
   H      5.92000000     8.86000000    80.68000000
   H      5.42000000     9.93000000    79.35000000
   H      4.16000000    12.24000000    79.99000000
   H      3.41000000    11.58000000    81.43000000
   H      4.61000000    12.89000000    81.46000000
   H      3.88000000     7.89000000    79.98000000
   H      3.46000000     8.70000000    81.38000000
   H      3.09000000     9.48000000    79.90000000
   N      8.95000000    10.27000000    81.14000000
   C      9.99000000     9.32000000    81.47000000
   C      9.60000000     7.87000000    81.24000000
   O      8.82000000     7.44000000    80.39000000
   C     11.22000000     9.59000000    80.61000000
   C     11.66000000    11.05000000    80.70000000
   O     12.35000000     8.87000000    81.04000000
   H      9.05000000    10.67000000    80.21000000
   H     10.28000000     9.42000000    82.52000000
   H     11.03000000     9.33000000    79.57000000
   H     12.96000000     8.93000000    80.29000000
   H     12.69000000    11.29000000    80.43000000
   H     10.93000000    11.67000000    80.19000000
   H     11.80000000    11.35000000    81.74000000
   N     10.24000000     7.02000000    82.05000000
   C      9.84000000     5.66000000    82.33000000
   C      8.45000000     5.46000000    82.93000000
   O      8.00000000     4.32000000    83.03000000
   C     10.85000000     4.91000000    83.19000000
   C     10.99000000     5.47000000    84.61000000
   O     12.12000000     5.09000000    82.60000000
   H     11.04000000     7.31000000    82.59000000
   H      9.89000000     5.18000000    81.35000000
   H     10.50000000     3.89000000    83.11000000
   H     12.21000000     4.64000000    81.75000000
   H     10.22000000     5.16000000    85.31000000
   H     11.91000000     5.11000000    85.08000000
   H     10.96000000     6.55000000    84.77000000
   N      7.74000000     6.52000000    83.30000000
   C      6.43000000     6.37000000    83.91000000
   C      5.36000000     5.93000000    82.93000000
   O      5.32000000     6.39000000    81.79000000
   C      6.04000000     7.68000000    84.59000000
   C      4.71000000     7.64000000    85.33000000
   C      4.45000000     9.05000000    85.86000000
   C      2.99000000     9.48000000    85.72000000
   N      2.83000000    10.74000000    86.46000000
   H      8.04000000     7.48000000    83.18000000
   H      6.39000000     5.66000000    84.74000000
   H      5.81000000     8.38000000    83.78000000
   H      6.85000000     8.06000000    85.21000000
   H      4.81000000     7.08000000    86.26000000
   H      3.86000000     7.32000000    84.74000000
   H      5.04000000     9.77000000    85.30000000
   H      4.78000000     9.15000000    86.90000000
   H      2.37000000     8.64000000    86.04000000
   H      2.82000000     9.55000000    84.65000000
   H      3.52000000    11.43000000    86.20000000
   H      1.90000000    11.13000000    86.42000000
   H      3.16000000    10.64000000    87.41000000
   N      4.43000000     5.12000000    83.44000000
   C      3.08000000     4.88000000    82.94000000
   C      3.04000000     3.97000000    81.73000000
   O      3.84000000     3.04000000    81.64000000
   C      2.23000000     4.35000000    84.09000000
   C      2.47000000     2.89000000    84.47000000
   C      1.46000000     2.45000000    85.52000000
   O      1.93000000     2.35000000    86.67000000
   O      0.23000000     2.44000000    85.27000000
   H      4.66000000     4.63000000    84.29000000
   H      2.68000000     5.86000000    82.70000000
   H      1.20000000     4.38000000    83.76000000
   H      2.40000000     4.94000000    84.99000000
   H      3.47000000     2.64000000    84.83000000
   H      2.40000000     2.30000000    83.55000000
   N      2.16000000     4.12000000    80.74000000
   C      1.24000000     5.22000000    80.52000000
   H      0.33000000     5.05300000    81.09600000
   H      1.70500000     6.15300000    80.83900000
   H      0.99200000     5.28100000    79.46000000
   H      2.09000000     3.39000000    80.05000000
  Ca      8.69000000    15.29000000    68.13000000
   O     10.94000000    16.37000000    67.50000000
   H     11.29000000    16.32000000    66.61000000
   H     11.49000000    17.02000000    67.94000000
   O      8.22000000    17.80000000    66.96000000
   H      8.60000000    18.49000000    66.42000000
   H      7.28000000    17.88000000    66.82000000
   O     10.70000000    13.34000000    68.67000000
   H     10.37000000    12.68000000    69.28000000
   H     11.64000000    13.15000000    68.59000000
   O      7.51000000    12.98000000    67.91000000
   H      7.14000000    12.53000000    68.68000000
   H      7.25000000    12.43000000    67.17000000
   O      8.41000000    14.80000000    65.56000000
   H      8.58000000    15.59000000    65.05000000
   H      7.54000000    14.52000000    65.28000000

Ca 1.00



