%chk=loop1.holoCaM-CaMKII.run16.water2.chk
%nprocshared=20
%mem=10GB
%nosave
#b3lyp/svp scf=(tight,noincore,xqc) Test 
#IOP(5/87=12) Density=Current Pop=(MK,readradii) iop(6/33=2) iop(6/42=6)

loop1.holoCaM-CaMKII.run16.water2 

   0  1 
   C     67.66000000    55.50000000     9.12000000
   C     68.08000000    54.16000000     8.53000000
   O     67.28000000    53.25000000     8.35000000
   H     66.66700000    55.40700000     9.56100000
   H     68.37200000    55.79800000     9.88900000
   H     67.63800000    56.25300000     8.33300000
   N     69.38000000    54.03000000     8.22000000
   C     69.96000000    52.74000000     7.92000000
   C     70.17000000    51.95000000     9.20000000
   O     71.30000000    51.98000000     9.70000000
   C     71.23000000    52.99000000     7.10000000
   C     71.92000000    51.76000000     6.54000000
   O     73.11000000    51.92000000     6.21000000
   O     71.35000000    50.66000000     6.35000000
   H     69.94000000    54.84000000     8.44000000
   H     69.24000000    52.20000000     7.29000000
   H     71.90000000    53.51000000     7.78000000
   H     71.07000000    53.64000000     6.25000000
   N     69.19000000    51.19000000     9.69000000
   C     69.29000000    50.40000000    10.90000000
   C     70.03000000    49.09000000    10.68000000
   O     70.28000000    48.43000000    11.68000000
   C     67.90000000    50.19000000    11.51000000
   C     67.19000000    51.45000000    12.00000000
   C     65.79000000    51.11000000    12.51000000
   C     65.05000000    52.28000000    13.15000000
   N     65.05000000    53.50000000    12.32000000
   H     68.25000000    51.27000000     9.33000000
   H     69.85000000    50.95000000    11.65000000
   H     68.17000000    49.77000000    12.48000000
   H     67.37000000    49.53000000    10.83000000
   H     67.14000000    52.21000000    11.22000000
   H     67.86000000    51.87000000    12.75000000
   H     65.88000000    50.25000000    13.17000000
   H     65.20000000    50.68000000    11.70000000
   H     65.49000000    52.57000000    14.11000000
   H     64.03000000    52.09000000    13.47000000
   H     65.95000000    53.95000000    12.42000000
   H     64.95000000    53.29000000    11.34000000
   H     64.34000000    54.11000000    12.70000000
   N     70.29000000    48.67000000     9.44000000
   C     71.11000000    47.50000000     9.18000000
   C     72.55000000    47.73000000     8.75000000
   O     73.36000000    46.85000000     9.00000000
   C     70.35000000    46.54000000     8.26000000
   C     69.63000000    47.07000000     7.03000000
   O     68.70000000    46.42000000     6.50000000
   O     69.97000000    48.19000000     6.61000000
   H     70.25000000    49.36000000     8.71000000
   H     71.26000000    46.88000000    10.07000000
   H     69.68000000    45.96000000     8.89000000
   H     71.00000000    45.71000000     7.98000000
   N     72.88000000    48.88000000     8.16000000
   C     74.26000000    49.33000000     8.06000000
   C     74.80000000    49.14000000     6.65000000
   O     76.00000000    48.89000000     6.52000000
   H     72.12000000    49.47000000     7.87000000
   H     74.95000000    48.86000000     8.76000000
   H     74.29000000    50.41000000     8.18000000
   N     74.00000000    49.14000000     5.58000000
   C     74.32000000    48.83000000     4.20000000
   C     74.72000000    50.03000000     3.36000000
   O     75.21000000    49.88000000     2.24000000
   C     73.28000000    47.95000000     3.52000000
   C     71.89000000    48.57000000     3.43000000
   O     71.75000000    49.79000000     3.16000000
   O     70.87000000    47.91000000     3.71000000
   H     73.07000000    49.46000000     5.79000000
   H     75.21000000    48.21000000     4.28000000
   H     73.34000000    47.00000000     4.06000000
   H     73.57000000    47.75000000     2.49000000
   N     74.58000000    51.23000000     3.93000000
   C     74.98000000    52.46000000     3.28000000
   C     73.90000000    52.86000000     2.28000000
   O     74.19000000    53.71000000     1.44000000
   H     74.23000000    51.24000000     4.87000000
   H     75.91000000    52.31000000     2.72000000
   H     74.97000000    53.30000000     3.98000000
   N     72.64000000    52.44000000     2.41000000
   C     71.52000000    53.05000000     1.72000000
   C     70.37000000    53.08000000     2.72000000
   O     70.32000000    52.34000000     3.70000000
   C     71.18000000    52.27000000     0.46000000
   C     72.27000000    52.41000000    -0.59000000
   O     70.83000000    50.91000000     0.65000000
   H     72.48000000    51.81000000     3.19000000
   H     71.75000000    54.06000000     1.39000000
   H     70.24000000    52.58000000     0.01000000
   H     71.28000000    50.78000000     1.48000000
   H     73.23000000    51.98000000    -0.29000000
   H     71.96000000    51.86000000    -1.48000000
   H     72.42000000    53.46000000    -0.87000000
   N     69.41000000    53.97000000     2.44000000
   C     68.15000000    54.28000000     3.07000000
   C     67.05000000    54.25000000     2.02000000
   O     67.03000000    54.94000000     1.01000000
   C     68.20000000    55.65000000     3.74000000
   C     69.28000000    55.74000000     4.81000000
   C     66.82000000    55.99000000     4.29000000
   C     69.68000000    57.17000000     5.19000000
   H     69.66000000    54.60000000     1.69000000
   H     67.95000000    53.53000000     3.84000000
   H     68.43000000    56.34000000     2.92000000
   H     70.14000000    55.19000000     4.42000000
   H     68.93000000    55.22000000     5.70000000
   H     66.01000000    55.81000000     3.58000000
   H     66.65000000    55.43000000     5.21000000
   H     66.75000000    57.05000000     4.51000000
   H     70.21000000    57.59000000     4.34000000
   H     68.79000000    57.79000000     5.34000000
   H     70.28000000    57.07000000     6.10000000
   N     66.05000000    53.39000000     2.26000000
   C     64.85000000    53.23000000     1.45000000
   C     63.70000000    54.08000000     1.95000000
   O     63.75000000    54.60000000     3.06000000
   C     64.44000000    51.76000000     1.34000000
   C     65.63000000    50.87000000     0.98000000
   O     64.03000000    51.38000000     2.63000000
   H     66.28000000    52.76000000     3.01000000
   H     65.05000000    53.56000000     0.44000000
   H     63.62000000    51.62000000     0.64000000
   H     64.02000000    50.42000000     2.71000000
   H     66.02000000    51.18000000     0.01000000
   H     66.48000000    51.00000000     1.65000000
   H     65.25000000    49.86000000     0.83000000
   N     62.64000000    54.16000000     1.13000000
   C     61.39000000    54.80000000     1.45000000
   C     60.68000000    54.26000000     2.68000000
   O     60.14000000    55.09000000     3.41000000
   C     60.49000000    54.69000000     0.22000000
   C     59.64000000    55.94000000     0.12000000
   O     61.20000000    54.70000000    -1.00000000
   H     62.66000000    53.68000000     0.24000000
   H     61.72000000    55.80000000     1.74000000
   H     59.87000000    53.80000000     0.32000000
   H     60.46000000    54.78000000    -1.62000000
   H     59.51000000    56.39000000     1.11000000
   H     60.06000000    56.65000000    -0.60000000
   H     58.63000000    55.67000000    -0.20000000
   N     60.87000000    52.96000000     2.92000000
   C     60.29000000    52.36000000     4.10000000
   C     61.21000000    52.51000000     5.31000000
   O     60.77000000    52.46000000     6.46000000
   C     59.72000000    50.96000000     3.95000000
   C     58.52000000    51.02000000     3.01000000
   C     57.89000000    49.65000000     2.78000000
   C     56.60000000    49.81000000     1.99000000
   N     56.01000000    48.47000000     1.79000000
   H     61.16000000    52.40000000     2.14000000
   H     59.38000000    52.92000000     4.36000000
   H     59.40000000    50.57000000     4.91000000
   H     60.53000000    50.32000000     3.60000000
   H     58.70000000    51.58000000     2.09000000
   H     57.78000000    51.63000000     3.54000000
   H     57.59000000    49.34000000     3.78000000
   H     58.60000000    48.95000000     2.35000000
   H     56.82000000    50.35000000     1.07000000
   H     55.94000000    50.52000000     2.48000000
   H     55.62000000    48.10000000     2.64000000
   H     55.29000000    48.57000000     1.10000000
   H     56.74000000    47.88000000     1.42000000
   N     62.51000000    52.77000000     5.20000000
   C     63.35000000    53.11000000     6.32000000
   C     63.16000000    54.57000000     6.70000000
   O     63.10000000    54.80000000     7.90000000
   C     64.84000000    52.88000000     6.11000000
   C     65.37000000    51.45000000     6.00000000
   C     66.82000000    51.17000000     5.63000000
   O     67.27000000    51.37000000     4.48000000
   O     67.57000000    50.60000000     6.45000000
   H     62.94000000    52.81000000     4.28000000
   H     63.13000000    52.48000000     7.19000000
   H     65.37000000    53.32000000     6.96000000
   H     65.17000000    53.43000000     5.23000000
   H     64.74000000    50.97000000     5.25000000
   H     65.18000000    50.98000000     6.97000000
   N     62.98000000    55.52000000     5.78000000
   C     62.38000000    56.81000000     6.07000000
   H     61.40500000    56.66100000     6.53400000
   H     63.02400000    57.36600000     6.75100000
   H     62.25800000    57.37100000     5.14400000
   H     63.04000000    55.16000000     4.84000000
  Ca     69.44000000    49.86000000     4.70000000
   O     68.88000000    49.93000000     2.15000000
   H     68.22000000    49.51000000     1.59000000
   H     69.47000000    50.37000000     1.53000000
   O     67.82000000    47.80000000     4.30000000
   H     68.00000000    47.31000000     5.10000000
   H     67.84000000    47.15000000     3.60000000

Ca 1.00



