%chk=loop3.holoCaM-CaMKII.run89.water3.chk
%nprocshared=20
%mem=10GB
%nosave
#b3lyp/svp scf=(tight,noincore,xqc) Test 
#IOP(5/87=12) Density=Current Pop=(MK,readradii) iop(6/33=2) iop(6/42=6)

loop3.holoCaM-CaMKII.run89.water3 

   0  1 
   C     48.27000000    23.60000000    91.32000000
   C     46.80000000    23.32000000    91.56000000
   O     46.30000000    22.41000000    90.90000000
   H     48.85600000    22.72300000    91.59400000
   H     48.43000000    23.82800000    90.26600000
   H     48.58300000    24.44900000    91.92800000
   N     46.09000000    23.94000000    92.51000000
   C     44.70000000    23.77000000    92.89000000
   C     43.80000000    24.30000000    91.79000000
   O     43.73000000    25.48000000    91.47000000
   C     44.50000000    24.50000000    94.22000000
   C     43.16000000    24.11000000    94.82000000
   O     42.83000000    24.68000000    95.88000000
   O     42.33000000    23.41000000    94.19000000
   H     46.59000000    24.71000000    92.94000000
   H     44.55000000    22.72000000    93.11000000
   H     44.62000000    25.58000000    94.15000000
   H     45.21000000    24.05000000    94.91000000
   N     43.08000000    23.38000000    91.14000000
   C     42.18000000    23.42000000    90.00000000
   C     40.88000000    24.16000000    90.28000000
   O     40.43000000    24.93000000    89.43000000
   C     41.92000000    22.01000000    89.47000000
   C     41.29000000    22.15000000    88.09000000
   C     41.14000000    20.74000000    87.52000000
   C     40.43000000    20.89000000    86.18000000
   N     40.14000000    19.59000000    85.54000000
   H     43.30000000    22.47000000    91.50000000
   H     42.59000000    23.99000000    89.17000000
   H     41.26000000    21.48000000    90.15000000
   H     42.88000000    21.51000000    89.33000000
   H     41.95000000    22.73000000    87.44000000
   H     40.32000000    22.64000000    88.07000000
   H     40.55000000    20.08000000    88.16000000
   H     42.14000000    20.32000000    87.42000000
   H     41.03000000    21.52000000    85.53000000
   H     39.50000000    21.44000000    86.32000000
   H     41.03000000    19.17000000    85.31000000
   H     39.67000000    18.90000000    86.11000000
   H     39.59000000    19.71000000    84.71000000
   N     40.32000000    24.02000000    91.48000000
   C     39.06000000    24.62000000    91.87000000
   C     39.19000000    25.79000000    92.83000000
   O     38.29000000    26.62000000    92.96000000
   C     38.08000000    23.50000000    92.20000000
   C     38.38000000    22.72000000    93.47000000
   O     37.48000000    22.02000000    93.98000000
   O     39.54000000    22.82000000    93.93000000
   H     40.62000000    23.33000000    92.16000000
   H     38.59000000    24.97000000    90.95000000
   H     38.07000000    22.77000000    91.39000000
   H     37.11000000    23.97000000    92.28000000
   N     40.35000000    25.84000000    93.48000000
   C     40.73000000    26.97000000    94.30000000
   C     40.45000000    26.77000000    95.78000000
   O     40.50000000    27.73000000    96.55000000
   H     40.96000000    25.04000000    93.57000000
   H     40.25000000    27.89000000    93.96000000
   H     41.78000000    27.27000000    94.22000000
   N     40.04000000    25.57000000    96.18000000
   C     39.39000000    25.32000000    97.45000000
   C     40.37000000    25.15000000    98.60000000
   O     39.92000000    24.91000000    99.72000000
   C     38.51000000    24.09000000    97.28000000
   C     39.18000000    22.73000000    97.33000000
   N     38.78000000    21.89000000    98.30000000
   O     40.21000000    22.45000000    96.71000000
   H     40.03000000    24.78000000    95.54000000
   H     38.80000000    26.20000000    97.71000000
   H     37.89000000    24.14000000    96.38000000
   H     37.75000000    24.22000000    98.06000000
   H     37.94000000    22.21000000    98.76000000
   H     39.28000000    21.03000000    98.43000000
   N     41.69000000    25.12000000    98.36000000
   C     42.69000000    25.16000000    99.41000000
   C     43.37000000    23.81000000    99.55000000
   O     44.18000000    23.73000000   100.48000000
   H     41.97000000    25.21000000    97.40000000
   H     42.30000000    25.44000000   100.39000000
   H     43.38000000    25.93000000    99.08000000
   N     43.23000000    22.90000000    98.58000000
   C     43.81000000    21.58000000    98.66000000
   C     44.13000000    21.03000000    97.27000000
   O     43.35000000    21.05000000    96.32000000
   C     43.02000000    20.54000000    99.45000000
   C     42.39000000    20.91000000   100.78000000
   C     43.12000000    20.79000000   101.97000000
   C     41.17000000    21.59000000   100.78000000
   C     42.61000000    21.36000000   103.13000000
   C     40.61000000    22.08000000   101.97000000
   C     41.35000000    22.00000000   103.17000000
   O     40.77000000    22.48000000   104.30000000
   H     42.55000000    23.09000000    97.86000000
   H     44.73000000    21.76000000    99.21000000
   H     43.62000000    19.65000000    99.67000000
   H     42.18000000    20.21000000    98.84000000
   H     43.99000000    20.15000000   101.97000000
   H     40.66000000    21.64000000    99.83000000
   H     43.09000000    21.19000000   104.08000000
   H     39.68000000    22.62000000   102.01000000
   H     41.34000000    22.31000000   105.06000000
   N     45.38000000    20.56000000    97.14000000
   C     45.87000000    19.81000000    96.00000000
   C     45.55000000    18.32000000    96.10000000
   O     46.06000000    17.65000000    97.00000000
   C     47.36000000    20.07000000    95.82000000
   C     47.71000000    21.55000000    95.70000000
   C     47.98000000    19.21000000    94.73000000
   C     49.16000000    22.01000000    95.77000000
   H     46.00000000    20.63000000    97.92000000
   H     45.42000000    20.21000000    95.10000000
   H     47.77000000    19.73000000    96.77000000
   H     47.19000000    22.08000000    96.50000000
   H     47.36000000    21.84000000    94.71000000
   H     47.98000000    18.17000000    95.05000000
   H     47.44000000    19.24000000    93.79000000
   H     49.04000000    19.31000000    94.50000000
   H     49.23000000    23.10000000    95.79000000
   H     49.74000000    21.56000000    96.58000000
   H     49.61000000    21.75000000    94.81000000
   N     44.72000000    17.80000000    95.20000000
   C     44.67000000    16.36000000    95.05000000
   C     45.71000000    15.85000000    94.06000000
   O     46.27000000    16.63000000    93.30000000
   C     43.22000000    16.06000000    94.67000000
   O     42.80000000    16.55000000    93.42000000
   H     44.18000000    18.28000000    94.49000000
   H     44.84000000    15.79000000    95.96000000
   H     42.53000000    16.53000000    95.37000000
   H     43.00000000    15.01000000    94.52000000
   H     42.74000000    17.49000000    93.61000000
   N     46.02000000    14.56000000    94.19000000
   C     46.92000000    13.86000000    93.29000000
   C     46.64000000    14.13000000    91.82000000
   O     47.56000000    14.43000000    91.05000000
   C     46.87000000    12.38000000    93.66000000
   H     45.40000000    13.99000000    94.76000000
   H     47.89000000    14.31000000    93.50000000
   H     45.89000000    11.99000000    93.40000000
   H     47.64000000    11.84000000    93.12000000
   H     46.98000000    12.32000000    94.75000000
   N     45.35000000    14.22000000    91.48000000
   C     44.89000000    14.52000000    90.14000000
   C     45.17000000    15.93000000    89.64000000
   O     45.25000000    16.17000000    88.44000000
   C     43.37000000    14.39000000    90.17000000
   H     44.61000000    13.99000000    92.13000000
   H     45.33000000    13.76000000    89.49000000
   H     42.93000000    14.58000000    89.19000000
   H     43.18000000    13.33000000    90.33000000
   H     42.93000000    14.94000000    91.01000000
   N     45.37000000    16.88000000    90.56000000
   C     45.63000000    18.26000000    90.21000000
   C     47.11000000    18.57000000    90.13000000
   O     47.69000000    19.33000000    89.35000000
   C     45.03000000    19.10000000    91.34000000
   C     43.51000000    19.12000000    91.28000000
   C     42.89000000    19.82000000    92.48000000
   O     42.69000000    19.18000000    93.53000000
   O     42.76000000    21.06000000    92.53000000
   H     45.27000000    16.69000000    91.55000000
   H     45.12000000    18.55000000    89.29000000
   H     45.42000000    20.12000000    91.26000000
   H     45.38000000    18.68000000    92.28000000
   H     43.23000000    18.07000000    91.26000000
   H     43.12000000    19.53000000    90.34000000
   N     47.82000000    17.79000000    90.95000000
   C     49.22000000    17.49000000    90.74000000
   H     49.80800000    17.91600000    91.55300000
   H     49.36100000    16.40900000    90.71800000
   H     49.54600000    17.91900000    89.79300000
   H     47.34000000    17.20000000    91.62000000
  Ca     41.22000000    21.07000000    94.68000000
   O     38.76000000    19.92000000    95.02000000
   H     38.26000000    20.54000000    94.48000000
   H     38.12000000    19.26000000    95.28000000
   O     39.89000000    19.85000000    92.49000000
   H     39.38000000    19.94000000    91.69000000
   H     39.72000000    18.95000000    92.78000000
   O     41.04000000    18.89000000    96.33000000
   H     40.21000000    18.43000000    96.25000000
   H     41.62000000    18.27000000    96.78000000

Ca 1.00



