%chk=loop3.apoCaM-CA-Ng.Init295.run76.water4.chk
%nprocshared=20
%mem=10GB
%nosave
#b3lyp/svp scf=(tight,noincore,xqc) Test 
#IOP(5/87=12) Density=Current Pop=(MK,readradii) iop(6/33=2) iop(6/42=6)

loop3.apoCaM-CA-Ng.Init295.run76.water4 

   0  1 
   C    -11.55000000   -20.34000000    44.92000000
   C    -12.71000000   -21.18000000    44.40000000
   O    -13.87000000   -20.81000000    44.55000000
   H    -10.71600000   -20.40000000    44.22000000
   H    -11.86800000   -19.30200000    45.01800000
   H    -11.23500000   -20.71700000    45.89300000
   N    -12.36000000   -22.28000000    43.72000000
   C    -13.31000000   -23.25000000    43.22000000
   C    -13.78000000   -24.28000000    44.25000000
   O    -12.90000000   -24.92000000    44.82000000
   C    -12.76000000   -23.90000000    41.95000000
   C    -13.77000000   -24.59000000    41.05000000
   O    -13.79000000   -24.44000000    39.81000000
   O    -14.60000000   -25.38000000    41.56000000
   H    -11.40000000   -22.39000000    43.42000000
   H    -14.23000000   -22.74000000    42.93000000
   H    -12.03000000   -24.66000000    42.23000000
   H    -12.18000000   -23.17000000    41.38000000
   N    -15.09000000   -24.55000000    44.23000000
   C    -15.76000000   -25.47000000    45.12000000
   C    -15.47000000   -26.95000000    44.91000000
   O    -15.67000000   -27.76000000    45.82000000
   C    -17.28000000   -25.32000000    45.12000000
   C    -17.93000000   -25.82000000    43.83000000
   C    -19.37000000   -25.35000000    43.65000000
   C    -19.99000000   -25.39000000    42.26000000
   N    -19.70000000   -26.70000000    41.67000000
   H    -15.67000000   -24.04000000    43.58000000
   H    -15.50000000   -25.26000000    46.16000000
   H    -17.59000000   -24.28000000    45.23000000
   H    -17.87000000   -25.82000000    45.88000000
   H    -18.05000000   -26.90000000    43.86000000
   H    -17.44000000   -25.41000000    42.94000000
   H    -19.42000000   -24.31000000    43.96000000
   H    -20.04000000   -25.88000000    44.33000000
   H    -19.63000000   -24.57000000    41.63000000
   H    -21.06000000   -25.20000000    42.36000000
   H    -18.75000000   -27.03000000    41.74000000
   H    -20.22000000   -27.48000000    42.06000000
   H    -19.98000000   -26.67000000    40.70000000
   N    -14.87000000   -27.36000000    43.79000000
   C    -14.64000000   -28.71000000    43.33000000
   C    -13.30000000   -28.89000000    42.61000000
   O    -12.91000000   -29.97000000    42.18000000
   C    -15.78000000   -29.18000000    42.44000000
   C    -15.94000000   -28.32000000    41.19000000
   O    -15.15000000   -28.36000000    40.23000000
   O    -16.98000000   -27.62000000    41.07000000
   H    -14.65000000   -26.63000000    43.13000000
   H    -14.61000000   -29.34000000    44.22000000
   H    -16.69000000   -29.05000000    43.03000000
   H    -15.70000000   -30.24000000    42.20000000
   N    -12.49000000   -27.83000000    42.57000000
   C    -11.16000000   -27.82000000    41.99000000
   C    -11.04000000   -28.03000000    40.49000000
   O     -9.89000000   -28.03000000    40.06000000
   H    -12.76000000   -26.99000000    43.07000000
   H    -10.70000000   -28.70000000    42.44000000
   H    -10.50000000   -27.01000000    42.29000000
   N    -12.12000000   -28.24000000    39.73000000
   C    -12.13000000   -28.45000000    38.30000000
   C    -12.86000000   -27.36000000    37.53000000
   O    -13.73000000   -26.74000000    38.14000000
   C    -12.72000000   -29.83000000    38.02000000
   C    -11.83000000   -30.92000000    38.62000000
   N    -11.85000000   -31.18000000    39.93000000
   O    -11.07000000   -31.51000000    37.86000000
   H    -12.99000000   -28.18000000    40.23000000
   H    -11.10000000   -28.41000000    37.94000000
   H    -12.80000000   -30.13000000    36.98000000
   H    -13.72000000   -30.00000000    38.43000000
   H    -12.46000000   -30.54000000    40.42000000
   H    -11.27000000   -31.89000000    40.34000000
   N    -12.60000000   -27.01000000    36.27000000
   C    -13.06000000   -25.76000000    35.71000000
   C    -14.29000000   -25.78000000    34.81000000
   O    -14.73000000   -24.69000000    34.44000000
   H    -11.83000000   -27.50000000    35.83000000
   H    -12.22000000   -25.29000000    35.18000000
   H    -13.29000000   -25.06000000    36.51000000
   N    -14.95000000   -26.88000000    34.46000000
   C    -16.10000000   -26.94000000    33.58000000
   C    -17.24000000   -26.08000000    34.10000000
   O    -17.51000000   -25.94000000    35.29000000
   C    -16.52000000   -28.37000000    33.26000000
   C    -17.68000000   -28.52000000    32.31000000
   C    -18.96000000   -28.93000000    32.70000000
   C    -17.42000000   -28.23000000    30.97000000
   C    -20.00000000   -29.00000000    31.77000000
   C    -18.49000000   -28.15000000    30.07000000
   C    -19.79000000   -28.52000000    30.47000000
   O    -20.85000000   -28.52000000    29.61000000
   H    -14.50000000   -27.77000000    34.60000000
   H    -15.81000000   -26.61000000    32.57000000
   H    -16.71000000   -28.91000000    34.19000000
   H    -15.64000000   -28.89000000    32.87000000
   H    -19.13000000   -29.28000000    33.71000000
   H    -16.41000000   -27.98000000    30.70000000
   H    -20.98000000   -29.33000000    32.10000000
   H    -18.34000000   -27.76000000    29.07000000
   H    -20.59000000   -27.92000000    28.92000000
   N    -17.98000000   -25.44000000    33.19000000
   C    -19.07000000   -24.50000000    33.39000000
   C    -20.37000000   -25.17000000    33.82000000
   O    -20.40000000   -26.05000000    34.68000000
   C    -18.60000000   -23.32000000    34.23000000
   C    -19.69000000   -22.32000000    34.63000000
   C    -17.59000000   -22.50000000    33.43000000
   C    -20.17000000   -22.64000000    36.04000000
   H    -17.65000000   -25.63000000    32.26000000
   H    -19.45000000   -24.14000000    32.44000000
   H    -18.06000000   -23.62000000    35.13000000
   H    -20.51000000   -22.28000000    33.91000000
   H    -19.29000000   -21.31000000    34.69000000
   H    -17.12000000   -21.63000000    33.88000000
   H    -16.75000000   -23.13000000    33.16000000
   H    -17.99000000   -22.13000000    32.48000000
   H    -20.31000000   -23.69000000    36.29000000
   H    -19.44000000   -22.30000000    36.77000000
   H    -21.17000000   -22.20000000    36.10000000
   N    -21.50000000   -24.77000000    33.24000000
   C    -22.72000000   -25.52000000    33.45000000
   C    -23.78000000   -25.41000000    32.37000000
   O    -24.70000000   -26.23000000    32.32000000
   C    -23.33000000   -25.23000000    34.82000000
   O    -23.39000000   -23.83000000    34.98000000
   H    -21.49000000   -23.96000000    32.64000000
   H    -22.43000000   -26.57000000    33.46000000
   H    -22.63000000   -25.54000000    35.60000000
   H    -24.27000000   -25.77000000    34.92000000
   H    -23.88000000   -23.77000000    35.80000000
   N    -23.58000000   -24.40000000    31.52000000
   C    -24.48000000   -23.93000000    30.49000000
   C    -25.96000000   -23.78000000    30.80000000
   O    -26.85000000   -24.22000000    30.09000000
   C    -24.24000000   -24.76000000    29.23000000
   H    -22.66000000   -24.00000000    31.63000000
   H    -24.01000000   -22.96000000    30.29000000
   H    -24.68000000   -24.28000000    28.36000000
   H    -23.18000000   -25.01000000    29.19000000
   H    -24.74000000   -25.71000000    29.40000000
   N    -26.30000000   -23.06000000    31.88000000
   C    -25.49000000   -22.08000000    32.58000000
   C    -25.64000000   -20.69000000    31.98000000
   O    -26.61000000   -20.36000000    31.31000000
   C    -25.97000000   -22.03000000    34.03000000
   H    -27.28000000   -23.05000000    32.12000000
   H    -24.48000000   -22.47000000    32.47000000
   H    -25.17000000   -21.60000000    34.62000000
   H    -26.95000000   -21.55000000    34.11000000
   H    -26.04000000   -23.09000000    34.27000000
   N    -24.70000000   -19.75000000    32.10000000
   C    -23.39000000   -19.94000000    32.69000000
   C    -22.31000000   -19.25000000    31.86000000
   O    -21.15000000   -19.64000000    32.00000000
   C    -23.35000000   -19.32000000    34.08000000
   C    -22.43000000   -19.98000000    35.10000000
   C    -22.67000000   -19.32000000    36.45000000
   O    -22.22000000   -18.16000000    36.58000000
   O    -23.30000000   -19.94000000    37.33000000
   H    -24.92000000   -18.86000000    31.68000000
   H    -23.06000000   -20.98000000    32.68000000
   H    -24.33000000   -19.47000000    34.51000000
   H    -23.14000000   -18.25000000    34.00000000
   H    -21.39000000   -19.85000000    34.81000000
   H    -22.62000000   -21.04000000    35.25000000
   N    -22.64000000   -18.34000000    30.95000000
   C    -21.73000000   -17.46000000    30.25000000
   H    -20.78400000   -17.97500000    30.08200000
   H    -22.16400000   -17.17600000    29.29100000
   H    -21.55400000   -16.56700000    30.84900000
   H    -23.62000000   -18.11000000    30.81000000
  Ca    -15.93400000   -25.98400000    39.42000000
   O    -16.78400000   -27.88400000    37.52000000
   H    -16.98400000   -27.76400000    36.59000000
   H    -16.90400000   -28.82400000    37.68000000
   O    -17.01400000   -23.89400000    41.00000000
   H    -16.76400000   -23.55400000    41.86000000
   H    -17.77400000   -23.37400000    40.75000000
   O    -16.37400000   -24.38400000    37.16000000
   H    -16.94400000   -24.85400000    36.56000000
   H    -15.90400000   -23.75400000    36.60000000
   O    -18.59400000   -25.85400000    38.82000000
   H    -18.86400000   -26.64400000    38.35000000
   H    -19.40400000   -25.34400000    38.90000000

Ca 1.00



