%chk=loop2.holoCaM-CaMKII.run71.water2.chk
%nprocshared=20
%mem=10GB
%nosave
#b3lyp/svp scf=(tight,noincore,xqc) Test 
#IOP(5/87=12) Density=Current Pop=(MK,readradii) iop(6/33=2) iop(6/42=6)

loop2.holoCaM-CaMKII.run71.water2 

   -2  1 
   C     17.85000000    59.00000000     2.43000000
   C     18.01000000    60.38000000     1.79000000
   O     19.07000000    60.98000000     1.85000000
   H     16.84600000    58.62400000     2.23500000
   H     18.58300000    58.31400000     2.00500000
   H     18.00600000    59.07800000     3.50600000
   N     17.02000000    60.94000000     1.09000000
   C     17.09000000    62.17000000     0.33000000
   C     17.32000000    63.46000000     1.12000000
   O     16.86000000    63.59000000     2.25000000
   C     15.85000000    62.25000000    -0.54000000
   C     16.11000000    63.02000000    -1.83000000
   O     17.19000000    63.60000000    -2.06000000
   O     15.17000000    63.12000000    -2.64000000
   H     16.10000000    60.53000000     1.19000000
   H     17.98000000    62.16000000    -0.31000000
   H     14.98000000    62.63000000     0.00000000
   H     15.46000000    61.29000000    -0.88000000
   N     17.92000000    64.43000000     0.42000000
   C     18.33000000    65.69000000     1.01000000
   C     18.04000000    66.82000000     0.03000000
   O     17.58000000    67.85000000     0.53000000
   C     19.79000000    65.53000000     1.42000000
   H     18.16000000    64.24000000    -0.54000000
   H     17.74000000    65.82000000     1.91000000
   H     20.08000000    66.52000000     1.75000000
   H     19.93000000    64.81000000     2.22000000
   H     20.46000000    65.36000000     0.58000000
   N     18.22000000    66.61000000    -1.27000000
   C     18.14000000    67.65000000    -2.28000000
   C     16.97000000    67.53000000    -3.24000000
   O     16.66000000    68.45000000    -4.00000000
   C     19.39000000    67.57000000    -3.15000000
   C     19.95000000    66.20000000    -3.51000000
   O     19.13000000    65.26000000    -3.54000000
   O     21.20000000    66.11000000    -3.48000000
   H     18.59000000    65.73000000    -1.61000000
   H     18.13000000    68.63000000    -1.80000000
   H     20.17000000    68.05000000    -2.55000000
   H     19.36000000    68.15000000    -4.07000000
   N     16.28000000    66.39000000    -3.24000000
   C     15.13000000    66.19000000    -4.10000000
   C     15.46000000    66.10000000    -5.59000000
   O     14.55000000    66.39000000    -6.37000000
   H     16.60000000    65.56000000    -2.76000000
   H     14.40000000    66.97000000    -3.88000000
   H     14.68000000    65.25000000    -3.81000000
   N     16.64000000    65.59000000    -5.94000000
   C     17.26000000    65.70000000    -7.24000000
   C     16.98000000    64.52000000    -8.17000000
   O     17.19000000    64.72000000    -9.37000000
   C     18.76000000    65.87000000    -7.09000000
   C     19.46000000    64.58000000    -6.68000000
   N     20.79000000    64.57000000    -6.82000000
   O     18.92000000    63.67000000    -6.06000000
   H     17.29000000    65.36000000    -5.19000000
   H     16.89000000    66.60000000    -7.74000000
   H     18.89000000    66.70000000    -6.40000000
   H     19.16000000    66.33000000    -8.00000000
   H     21.19000000    65.41000000    -7.20000000
   H     21.42000000    63.91000000    -6.38000000
   N     16.57000000    63.34000000    -7.71000000
   C     16.16000000    62.20000000    -8.50000000
   C     16.87000000    60.91000000    -8.10000000
   O     16.30000000    59.85000000    -8.36000000
   H     16.40000000    63.27000000    -6.72000000
   H     16.34000000    62.39000000    -9.56000000
   H     15.11000000    62.12000000    -8.23000000
   N     18.07000000    60.95000000    -7.53000000
   C     18.94000000    59.80000000    -7.38000000
   C     19.35000000    59.62000000    -5.93000000
   O     19.12000000    60.52000000    -5.12000000
   C     20.19000000    60.06000000    -8.23000000
   C     19.91000000    59.65000000    -9.68000000
   O     20.56000000    61.41000000    -8.11000000
   H     18.40000000    61.89000000    -7.39000000
   H     18.48000000    58.86000000    -7.67000000
   H     20.97000000    59.39000000    -7.88000000
   H     20.93000000    61.62000000    -7.25000000
   H     19.11000000    60.22000000   -10.14000000
   H     20.81000000    59.80000000   -10.28000000
   H     19.76000000    58.60000000    -9.93000000
   N     19.92000000    58.47000000    -5.57000000
   C     20.79000000    58.42000000    -4.41000000
   C     22.10000000    59.12000000    -4.75000000
   O     22.66000000    58.92000000    -5.82000000
   C     20.83000000    56.99000000    -3.89000000
   C     19.86000000    56.65000000    -2.76000000
   C     22.15000000    56.53000000    -3.28000000
   C     19.59000000    55.16000000    -2.54000000
   H     20.22000000    57.84000000    -6.31000000
   H     20.41000000    59.05000000    -3.61000000
   H     20.60000000    56.38000000    -4.76000000
   H     18.90000000    57.10000000    -2.96000000
   H     20.19000000    57.12000000    -1.83000000
   H     22.43000000    57.09000000    -2.39000000
   H     22.13000000    55.46000000    -3.07000000
   H     22.96000000    56.48000000    -4.00000000
   H     20.40000000    54.66000000    -2.01000000
   H     18.63000000    55.07000000    -2.04000000
   H     19.56000000    54.71000000    -3.53000000
   N     22.62000000    59.91000000    -3.80000000
   C     23.86000000    60.67000000    -3.85000000
   C     24.96000000    60.16000000    -2.93000000
   O     24.71000000    59.43000000    -1.97000000
   C     23.58000000    62.16000000    -3.67000000
   C     22.60000000    62.62000000    -4.74000000
   O     21.36000000    62.43000000    -4.69000000
   O     23.06000000    63.21000000    -5.74000000
   H     22.10000000    60.00000000    -2.94000000
   H     24.26000000    60.48000000    -4.85000000
   H     24.50000000    62.74000000    -3.72000000
   H     23.12000000    62.24000000    -2.69000000
   N     26.24000000    60.52000000    -3.02000000
   C     27.33000000    60.06000000    -2.18000000
   C     27.29000000    60.35000000    -0.68000000
   O     27.67000000    59.50000000     0.11000000
   C     28.64000000    60.34000000    -2.90000000
   C     29.76000000    59.44000000    -2.43000000
   C     30.66000000    59.74000000    -1.40000000
   C     29.81000000    58.16000000    -2.99000000
   C     31.53000000    58.78000000    -0.88000000
   C     30.62000000    57.15000000    -2.45000000
   C     31.47000000    57.48000000    -1.39000000
   H     26.42000000    61.17000000    -3.77000000
   H     27.26000000    58.97000000    -2.16000000
   H     28.94000000    61.37000000    -2.74000000
   H     28.40000000    60.05000000    -3.92000000
   H     30.73000000    60.72000000    -0.96000000
   H     29.06000000    57.89000000    -3.71000000
   H     32.16000000    58.96000000    -0.01000000
   H     30.58000000    56.15000000    -2.87000000
   H     32.09000000    56.70000000    -0.97000000
   N     26.72000000    61.44000000    -0.17000000
   C     26.43000000    61.57000000     1.25000000
   C     25.24000000    60.76000000     1.75000000
   O     25.15000000    60.48000000     2.94000000
   C     26.19000000    63.05000000     1.54000000
   C     26.25000000    63.77000000     0.19000000
   C     26.32000000    62.66000000    -0.85000000
   H     27.35000000    61.27000000     1.75000000
   H     25.16000000    63.25000000     1.82000000
   H     26.89000000    63.44000000     2.28000000
   H     25.56000000    64.59000000     0.00000000
   H     27.20000000    64.29000000     0.28000000
   H     25.30000000    62.49000000    -1.20000000
   H     26.96000000    62.93000000    -1.69000000
   N     24.27000000    60.49000000     0.89000000
   C     23.00000000    59.85000000     1.18000000
   C     23.20000000    58.34000000     1.22000000
   O     22.50000000    57.57000000     1.88000000
   C     21.98000000    60.15000000     0.08000000
   C     21.80000000    61.65000000    -0.18000000
   C     20.75000000    61.93000000    -1.24000000
   O     20.43000000    63.12000000    -1.46000000
   O     20.43000000    61.07000000    -2.09000000
   H     24.47000000    60.65000000    -0.09000000
   H     22.62000000    60.14000000     2.16000000
   H     21.03000000    59.70000000     0.34000000
   H     22.33000000    59.82000000    -0.90000000
   H     22.76000000    62.04000000    -0.53000000
   H     21.50000000    62.25000000     0.68000000
   N     24.28000000    57.95000000     0.54000000
   C     24.68000000    56.56000000     0.62000000
   H     25.63100000    56.48600000     1.14800000
   H     23.92100000    55.99300000     1.15900000
   H     24.79100000    56.15500000    -0.38600000
   H     24.75000000    58.59000000    -0.08000000
  Ca     19.08000000    62.71000000    -3.60400000
   O     17.86000000    60.54000000    -2.45400000
   H     18.78000000    60.38000000    -2.22400000
   H     17.36000000    60.15000000    -1.74400000
   O     16.56000000    62.38000000    -4.79400000
   H     16.35000000    61.57000000    -5.26400000
   H     15.83000000    62.50000000    -4.18400000

Ca 1.00



