%chk=loop2.apoCaM-CA-Ng.Init295.run83.water2.chk
%nprocshared=20
%mem=10GB
%nosave
#b3lyp/svp scf=(tight,noincore,xqc) Test 
#IOP(5/87=12) Density=Current Pop=(MK,readradii) iop(6/33=2) iop(6/42=6)

loop2.apoCaM-CA-Ng.Init295.run83.water2 

   -2  1 
   C     16.32000000     3.41000000    68.15000000
   C     16.70000000     4.35000000    69.28000000
   O     17.10000000     5.49000000    69.07000000
   H     15.45200000     3.80800000    67.62300000
   H     17.15500000     3.31900000    67.45600000
   H     16.07800000     2.42900000    68.55900000
   N     16.62000000     3.86000000    70.52000000
   C     17.05000000     4.54000000    71.73000000
   C     16.13000000     5.62000000    72.27000000
   O     16.53000000     6.51000000    73.02000000
   C     17.35000000     3.51000000    72.82000000
   C     18.20000000     4.04000000    73.96000000
   O     17.76000000     4.00000000    75.13000000
   O     19.30000000     4.55000000    73.65000000
   H     16.28000000     2.92000000    70.70000000
   H     17.94000000     5.04000000    71.36000000
   H     17.74000000     2.58000000    72.40000000
   H     16.35000000     3.27000000    73.18000000
   N     14.85000000     5.60000000    71.87000000
   C     13.78000000     6.43000000    72.40000000
   C     12.41000000     5.84000000    72.09000000
   O     12.33000000     5.03000000    71.18000000
   C     13.90000000     7.83000000    71.81000000
   H     14.65000000     4.85000000    71.23000000
   H     13.81000000     6.44000000    73.49000000
   H     14.94000000     8.17000000    71.80000000
   H     13.59000000     7.87000000    70.76000000
   H     13.23000000     8.58000000    72.22000000
   N     11.35000000     6.24000000    72.80000000
   C     11.23000000     7.35000000    73.73000000
   C     10.29000000     6.92000000    74.85000000
   O      9.23000000     6.32000000    74.69000000
   C     10.55000000     8.52000000    73.02000000
   C     10.51000000     9.72000000    73.96000000
   O     11.26000000     9.81000000    74.96000000
   O      9.59000000    10.54000000    73.76000000
   H     10.46000000     5.87000000    72.49000000
   H     12.17000000     7.54000000    74.24000000
   H      9.61000000     8.23000000    72.57000000
   H     11.17000000     8.93000000    72.22000000
   N     10.72000000     7.28000000    76.07000000
   C     10.15000000     6.78000000    77.30000000
   C     10.94000000     5.63000000    77.92000000
   O     12.17000000     5.55000000    77.89000000
   H     11.55000000     7.85000000    76.12000000
   H      9.14000000     6.41000000    77.15000000
   H     10.10000000     7.55000000    78.07000000
   N     10.35000000     4.61000000    78.54000000
   C      8.94000000     4.32000000    78.63000000
   C      8.39000000     4.07000000    77.23000000
   O      8.88000000     3.12000000    76.62000000
   C      8.67000000     3.10000000    79.51000000
   C      7.19000000     2.82000000    79.71000000
   N      6.61000000     3.02000000    80.90000000
   O      6.49000000     2.46000000    78.77000000
   H     11.00000000     4.04000000    79.07000000
   H      8.55000000     5.25000000    79.04000000
   H      9.21000000     3.30000000    80.44000000
   H      9.00000000     2.21000000    78.97000000
   H      7.18000000     3.46000000    81.60000000
   H      5.62000000     2.93000000    81.03000000
   N      7.32000000     4.71000000    76.76000000
   C      6.69000000     4.39000000    75.49000000
   C      5.93000000     5.61000000    75.02000000
   O      4.83000000     5.50000000    74.48000000
   H      6.86000000     5.42000000    77.30000000
   H      6.10000000     3.47000000    75.55000000
   H      7.50000000     4.19000000    74.79000000
   N      6.49000000     6.81000000    75.17000000
   C      6.02000000     8.06000000    74.61000000
   C      6.33000000     8.25000000    73.13000000
   O      6.72000000     9.34000000    72.72000000
   C      6.39000000     9.26000000    75.47000000
   C      5.38000000     9.41000000    76.61000000
   O      7.71000000     9.24000000    75.98000000
   H      7.42000000     6.85000000    75.58000000
   H      4.93000000     8.03000000    74.55000000
   H      6.28000000    10.14000000    74.83000000
   H      8.30000000     9.35000000    75.23000000
   H      4.36000000     9.42000000    76.21000000
   H      5.46000000     8.76000000    77.48000000
   H      5.47000000    10.44000000    76.94000000
   N      6.33000000     7.14000000    72.40000000
   C      6.66000000     7.21000000    70.99000000
   C      5.45000000     7.74000000    70.25000000
   O      4.31000000     7.32000000    70.46000000
   C      7.11000000     5.86000000    70.44000000
   C      8.51000000     5.48000000    70.92000000
   C      6.08000000     4.82000000    70.90000000
   C      9.07000000     4.25000000    70.22000000
   H      5.80000000     6.33000000    72.70000000
   H      7.48000000     7.92000000    70.90000000
   H      7.12000000     5.79000000    69.35000000
   H      8.54000000     5.45000000    72.01000000
   H      9.11000000     6.34000000    70.62000000
   H      6.14000000     4.55000000    71.95000000
   H      5.07000000     5.12000000    70.63000000
   H      6.19000000     3.85000000    70.41000000
   H     10.16000000     4.27000000    70.23000000
   H      8.70000000     3.35000000    70.71000000
   H      8.85000000     4.34000000    69.16000000
   N      5.71000000     8.83000000    69.53000000
   C      4.70000000     9.57000000    68.79000000
   C      5.27000000     9.83000000    67.40000000
   O      6.46000000    10.10000000    67.22000000
   C      4.28000000    10.85000000    69.50000000
   C      5.35000000    11.54000000    70.33000000
   O      5.28000000    11.51000000    71.58000000
   O      6.31000000    12.13000000    69.79000000
   H      6.65000000     9.20000000    69.53000000
   H      3.84000000     8.92000000    68.62000000
   H      3.44000000    10.61000000    70.15000000
   H      3.98000000    11.58000000    68.75000000
   N      4.36000000     9.70000000    66.44000000
   C      4.56000000     9.93000000    65.02000000
   C      5.75000000     9.15000000    64.50000000
   O      5.72000000     7.92000000    64.43000000
   C      3.29000000     9.66000000    64.23000000
   C      3.31000000     9.96000000    62.75000000
   C      2.79000000     8.97000000    61.91000000
   C      3.81000000    11.15000000    62.20000000
   C      2.96000000     9.08000000    60.53000000
   C      3.96000000    11.29000000    60.82000000
   C      3.53000000    10.24000000    60.00000000
   H      3.42000000     9.42000000    66.69000000
   H      4.79000000    11.00000000    65.04000000
   H      2.47000000    10.27000000    64.60000000
   H      3.04000000     8.62000000    64.44000000
   H      2.33000000     8.12000000    62.40000000
   H      4.02000000    11.93000000    62.91000000
   H      2.61000000     8.28000000    59.88000000
   H      4.29000000    12.26000000    60.47000000
   H      3.63000000    10.33000000    58.93000000
   N      6.78000000     9.84000000    63.99000000
   C      7.90000000     9.14000000    63.40000000
   C      8.60000000     8.29000000    64.45000000
   O      9.30000000     7.34000000    64.11000000
   C      8.90000000    10.19000000    62.92000000
   C      8.54000000    11.44000000    63.72000000
   C      7.04000000    11.26000000    63.94000000
   H      7.49000000     8.48000000    62.63000000
   H      9.97000000     9.99000000    63.00000000
   H      8.79000000    10.38000000    61.85000000
   H      9.09000000    11.37000000    64.65000000
   H      8.81000000    12.30000000    63.11000000
   H      6.78000000    11.70000000    64.91000000
   H      6.50000000    11.76000000    63.13000000
   N      8.54000000     8.53000000    65.76000000
   C      9.39000000     7.82000000    66.70000000
   C      8.97000000     6.36000000    66.80000000
   O      9.73000000     5.42000000    66.96000000
   C      9.15000000     8.35000000    68.11000000
   C      9.44000000     9.85000000    68.21000000
   C      9.13000000    10.42000000    69.59000000
   O      9.87000000    11.27000000    70.13000000
   O      8.14000000     9.98000000    70.21000000
   H      8.00000000     9.32000000    66.11000000
   H     10.47000000     7.77000000    66.59000000
   H      9.77000000     7.79000000    68.80000000
   H      8.08000000     8.21000000    68.31000000
   H      9.00000000    10.47000000    67.44000000
   H     10.51000000     9.97000000    68.05000000
   N      7.68000000     6.13000000    66.54000000
   C      7.07000000     4.82000000    66.40000000
   H      6.11600000     4.91800000    65.88200000
   H      7.73000000     4.17100000    65.82500000
   H      6.90500000     4.38800000    67.38700000
   H      7.03000000     6.90000000    66.43000000
  Ca      7.84000000    11.74000000    71.99000000
   O      7.40000000    12.58000000    74.53000000
   H      6.77000000    13.02000000    75.09000000
   H      8.21000000    12.55000000    75.04000000
   O      9.91000000    13.25000000    72.40000000
   H     10.07000000    14.05000000    71.90000000
   H     10.54000000    13.29000000    73.13000000

Ca 1.00



