%chk=loop1.holoCaM.run59.water2.chk
%nprocshared=20
%mem=10GB
%nosave
#b3lyp/svp scf=(tight,noincore,xqc) Test 
#IOP(5/87=12) Density=Current Pop=(MK,readradii) iop(6/33=2) iop(6/42=6)

loop1.holoCaM.run59.water2 

   0  1 
   C     48.00000000    72.02000000   -23.91000000
   C     47.06000000    70.88000000   -23.55000000
   O     47.45000000    69.79000000   -23.96000000
   H     48.93700000    71.61200000   -24.28800000
   H     47.54000000    72.64300000   -24.67700000
   H     48.19800000    72.62200000   -23.02300000
   N     45.89000000    71.15000000   -22.97000000
   C     44.76000000    70.25000000   -22.87000000
   C     44.04000000    70.10000000   -24.20000000
   O     43.42000000    71.07000000   -24.64000000
   C     43.74000000    70.74000000   -21.84000000
   C     42.64000000    69.71000000   -21.67000000
   O     41.65000000    70.02000000   -20.96000000
   O     42.74000000    68.59000000   -22.22000000
   H     45.77000000    72.12000000   -22.71000000
   H     45.10000000    69.28000000   -22.51000000
   H     43.30000000    71.71000000   -22.08000000
   H     44.18000000    70.81000000   -20.84000000
   N     44.16000000    68.99000000   -24.94000000
   C     43.83000000    68.95000000   -26.35000000
   C     42.52000000    68.28000000   -26.72000000
   O     42.19000000    68.14000000   -27.90000000
   C     45.09000000    68.46000000   -27.06000000
   C     45.28000000    68.92000000   -28.51000000
   C     46.42000000    68.19000000   -29.22000000
   C     46.87000000    68.64000000   -30.61000000
   N     45.83000000    68.52000000   -31.64000000
   H     44.80000000    68.30000000   -24.59000000
   H     43.55000000    69.95000000   -26.68000000
   H     45.05000000    67.37000000   -27.07000000
   H     45.97000000    68.77000000   -26.51000000
   H     45.48000000    69.99000000   -28.49000000
   H     44.37000000    68.66000000   -29.05000000
   H     46.18000000    67.13000000   -29.30000000
   H     47.26000000    68.25000000   -28.51000000
   H     47.72000000    68.07000000   -30.97000000
   H     47.27000000    69.65000000   -30.58000000
   H     45.50000000    67.57000000   -31.74000000
   H     45.07000000    69.16000000   -31.46000000
   H     46.26000000    68.75000000   -32.53000000
   N     41.77000000    67.84000000   -25.71000000
   C     40.35000000    67.59000000   -25.86000000
   C     39.50000000    68.60000000   -25.10000000
   O     38.48000000    69.00000000   -25.64000000
   C     40.01000000    66.23000000   -25.26000000
   C     40.79000000    65.99000000   -23.98000000
   O     41.49000000    64.95000000   -23.89000000
   O     40.81000000    66.74000000   -22.98000000
   H     42.06000000    67.92000000   -24.75000000
   H     40.06000000    67.62000000   -26.92000000
   H     40.35000000    65.49000000   -25.98000000
   H     38.94000000    66.06000000   -25.12000000
   N     39.88000000    69.06000000   -23.91000000
   C     39.16000000    70.06000000   -23.14000000
   C     38.53000000    69.56000000   -21.85000000
   O     37.64000000    70.23000000   -21.33000000
   H     40.62000000    68.64000000   -23.36000000
   H     38.31000000    70.45000000   -23.69000000
   H     39.78000000    70.95000000   -23.02000000
   N     38.97000000    68.39000000   -21.37000000
   C     38.48000000    67.76000000   -20.16000000
   C     38.88000000    68.56000000   -18.92000000
   O     38.32000000    68.35000000   -17.85000000
   C     38.85000000    66.30000000   -19.92000000
   C     40.30000000    65.85000000   -20.04000000
   O     40.66000000    64.76000000   -20.54000000
   O     41.19000000    66.62000000   -19.62000000
   H     39.71000000    67.90000000   -21.84000000
   H     37.40000000    67.86000000   -20.20000000
   H     38.22000000    65.81000000   -20.65000000
   H     38.38000000    66.04000000   -18.97000000
   N     39.86000000    69.46000000   -18.96000000
   C     40.37000000    70.24000000   -17.85000000
   C     41.57000000    69.60000000   -17.17000000
   O     42.06000000    70.10000000   -16.16000000
   H     40.40000000    69.58000000   -19.81000000
   H     39.53000000    70.32000000   -17.17000000
   H     40.68000000    71.25000000   -18.12000000
   N     42.17000000    68.53000000   -17.70000000
   C     43.38000000    67.93000000   -17.16000000
   C     44.34000000    67.61000000   -18.30000000
   O     43.95000000    67.53000000   -19.47000000
   C     43.00000000    66.70000000   -16.35000000
   C     42.46000000    67.07000000   -14.97000000
   O     42.09000000    65.86000000   -17.03000000
   H     41.98000000    68.29000000   -18.66000000
   H     43.86000000    68.73000000   -16.60000000
   H     43.92000000    66.18000000   -16.09000000
   H     41.64000000    66.29000000   -17.76000000
   H     42.26000000    66.20000000   -14.35000000
   H     43.28000000    67.67000000   -14.57000000
   H     41.58000000    67.66000000   -15.21000000
   N     45.55000000    67.21000000   -17.92000000
   C     46.61000000    66.74000000   -18.78000000
   C     46.59000000    65.22000000   -18.64000000
   O     46.38000000    64.71000000   -17.54000000
   C     47.87000000    67.55000000   -18.50000000
   C     47.83000000    69.02000000   -18.88000000
   C     49.09000000    66.74000000   -18.95000000
   C     47.95000000    69.41000000   -20.35000000
   H     45.68000000    67.28000000   -16.92000000
   H     46.38000000    66.91000000   -19.83000000
   H     47.91000000    67.57000000   -17.41000000
   H     48.61000000    69.63000000   -18.42000000
   H     46.85000000    69.39000000   -18.58000000
   H     49.99000000    67.36000000   -18.88000000
   H     49.37000000    65.85000000   -18.39000000
   H     49.01000000    66.40000000   -19.98000000
   H     47.74000000    70.46000000   -20.54000000
   H     48.97000000    69.16000000   -20.65000000
   H     47.18000000    68.83000000   -20.85000000
   N     46.90000000    64.42000000   -19.67000000
   C     47.28000000    63.03000000   -19.57000000
   C     48.62000000    62.77000000   -20.23000000
   O     49.21000000    63.71000000   -20.77000000
   C     46.21000000    62.23000000   -20.31000000
   C     46.20000000    62.30000000   -21.83000000
   O     46.31000000    60.86000000   -20.02000000
   H     46.91000000    64.87000000   -20.58000000
   H     47.34000000    62.69000000   -18.53000000
   H     45.27000000    62.62000000   -19.90000000
   H     45.52000000    60.32000000   -20.07000000
   H     45.38000000    61.73000000   -22.28000000
   H     46.05000000    63.30000000   -22.23000000
   H     47.19000000    61.93000000   -22.11000000
   N     49.23000000    61.59000000   -20.04000000
   C     50.47000000    61.31000000   -20.73000000
   C     50.65000000    61.66000000   -22.20000000
   O     51.71000000    62.17000000   -22.55000000
   C     50.65000000    59.80000000   -20.67000000
   C     51.02000000    59.31000000   -19.27000000
   O     49.57000000    59.03000000   -21.15000000
   H     48.81000000    60.83000000   -19.54000000
   H     51.26000000    61.76000000   -20.13000000
   H     51.51000000    59.50000000   -21.27000000
   H     49.84000000    58.12000000   -21.08000000
   H     50.13000000    59.20000000   -18.64000000
   H     51.52000000    58.34000000   -19.26000000
   H     51.72000000    60.01000000   -18.83000000
   N     49.67000000    61.41000000   -23.08000000
   C     49.71000000    61.77000000   -24.48000000
   C     49.73000000    63.26000000   -24.80000000
   O     50.32000000    63.64000000   -25.81000000
   C     48.58000000    61.03000000   -25.20000000
   C     48.69000000    59.51000000   -25.13000000
   C     47.62000000    58.69000000   -25.84000000
   C     47.61000000    57.21000000   -25.49000000
   N     48.68000000    56.38000000   -26.07000000
   H     48.92000000    60.80000000   -22.79000000
   H     50.65000000    61.39000000   -24.88000000
   H     48.33000000    61.31000000   -26.22000000
   H     47.64000000    61.21000000   -24.69000000
   H     48.79000000    59.30000000   -24.06000000
   H     49.64000000    59.16000000   -25.54000000
   H     47.71000000    58.79000000   -26.92000000
   H     46.65000000    59.13000000   -25.62000000
   H     46.65000000    56.73000000   -25.68000000
   H     47.68000000    57.30000000   -24.41000000
   H     49.56000000    56.65000000   -25.66000000
   H     48.52000000    55.39000000   -25.91000000
   H     48.76000000    56.52000000   -27.07000000
   N     49.34000000    64.09000000   -23.83000000
   C     49.45000000    65.53000000   -23.94000000
   C     50.64000000    66.07000000   -23.16000000
   O     51.34000000    66.96000000   -23.65000000
   C     48.12000000    66.02000000   -23.38000000
   C     46.78000000    65.52000000   -23.92000000
   C     45.54000000    65.95000000   -23.16000000
   O     45.54000000    65.65000000   -21.94000000
   O     44.48000000    66.32000000   -23.70000000
   H     48.87000000    63.66000000   -23.04000000
   H     49.56000000    65.87000000   -24.97000000
   H     48.19000000    67.10000000   -23.46000000
   H     48.11000000    65.82000000   -22.31000000
   H     46.79000000    64.43000000   -23.97000000
   H     46.78000000    65.91000000   -24.94000000
   N     51.02000000    65.43000000   -22.05000000
   C     52.20000000    65.75000000   -21.29000000
   H     52.97500000    66.11900000   -21.96200000
   H     51.96200000    66.51800000   -20.55400000
   H     52.55800000    64.85600000   -20.78000000
   H     50.48000000    64.64000000   -21.71000000
  Ca     42.90000000    66.13000000   -21.61700000
   O     43.24000000    64.24000000   -19.36700000
   H     43.09000000    64.58000000   -18.47700000
   H     42.85000000    63.37000000   -19.36700000
   O     43.33000000    63.51000000   -22.50700000
   H     42.63000000    63.67000000   -23.14700000
   H     43.39000000    62.56000000   -22.45700000

Ca 1.00



