%chk=loop1.holoCaM.run96.water1.chk
%nprocshared=20
%mem=10GB
%nosave
#b3lyp/svp scf=(tight,noincore,xqc) Test 
#IOP(5/87=12) Density=Current Pop=(MK,readradii) iop(6/33=2) iop(6/42=6)

loop1.holoCaM.run96.water1 

   0  1 
   C     31.97000000    71.58000000    26.20000000
   C     31.18000000    71.74000000    27.49000000
   O     30.04000000    72.21000000    27.47000000
   H     32.96300000    71.19300000    26.42800000
   H     31.45200000    70.88400000    25.54000000
   H     32.06200000    72.54800000    25.70700000
   N     31.65000000    71.24000000    28.64000000
   C     31.03000000    71.48000000    29.93000000
   C     30.85000000    72.93000000    30.35000000
   O     31.82000000    73.67000000    30.49000000
   C     31.91000000    70.81000000    30.98000000
   C     31.24000000    70.68000000    32.34000000
   O     31.03000000    71.70000000    33.03000000
   O     30.75000000    69.59000000    32.70000000
   H     32.52000000    70.73000000    28.56000000
   H     30.08000000    70.96000000    30.00000000
   H     32.79000000    71.42000000    31.14000000
   H     32.13000000    69.78000000    30.67000000
   N     29.62000000    73.42000000    30.53000000
   C     29.34000000    74.83000000    30.65000000
   C     29.81000000    75.50000000    31.94000000
   O     29.93000000    76.70000000    32.16000000
   C     27.95000000    75.26000000    30.20000000
   C     27.44000000    74.75000000    28.86000000
   C     28.24000000    75.22000000    27.64000000
   C     27.73000000    74.57000000    26.36000000
   N     28.40000000    75.13000000    25.17000000
   H     28.83000000    72.78000000    30.49000000
   H     30.02000000    75.27000000    29.92000000
   H     28.09000000    76.34000000    30.07000000
   H     27.13000000    75.05000000    30.89000000
   H     26.41000000    75.04000000    28.66000000
   H     27.49000000    73.66000000    28.80000000
   H     29.30000000    74.99000000    27.73000000
   H     28.15000000    76.31000000    27.62000000
   H     26.65000000    74.71000000    26.27000000
   H     28.02000000    73.52000000    26.40000000
   H     29.40000000    75.07000000    25.28000000
   H     28.17000000    74.65000000    24.31000000
   H     28.07000000    76.07000000    25.02000000
   N     30.11000000    74.59000000    32.87000000
   C     30.32000000    74.92000000    34.27000000
   C     31.74000000    74.74000000    34.79000000
   O     32.21000000    75.23000000    35.81000000
   C     29.45000000    73.99000000    35.11000000
   C     27.96000000    73.93000000    34.77000000
   O     27.61000000    72.78000000    34.42000000
   O     27.23000000    74.94000000    34.65000000
   H     30.15000000    73.66000000    32.47000000
   H     30.05000000    75.92000000    34.58000000
   H     29.58000000    74.36000000    36.12000000
   H     29.85000000    72.99000000    34.94000000
   N     32.42000000    73.83000000    34.09000000
   C     33.79000000    73.37000000    34.25000000
   C     33.77000000    72.25000000    35.29000000
   O     34.56000000    72.39000000    36.22000000
   H     31.93000000    73.43000000    33.30000000
   H     34.46000000    74.17000000    34.57000000
   H     34.21000000    72.86000000    33.39000000
   N     33.04000000    71.15000000    35.11000000
   C     33.16000000    70.06000000    36.07000000
   C     33.18000000    68.71000000    35.37000000
   O     33.06000000    67.67000000    36.02000000
   C     32.07000000    70.05000000    37.14000000
   C     30.71000000    70.15000000    36.47000000
   O     30.46000000    69.25000000    35.63000000
   O     29.91000000    71.10000000    36.60000000
   H     32.40000000    71.12000000    34.33000000
   H     34.20000000    70.04000000    36.38000000
   H     32.35000000    70.97000000    37.65000000
   H     32.07000000    69.23000000    37.86000000
   N     33.40000000    68.66000000    34.05000000
   C     33.36000000    67.40000000    33.34000000
   C     32.18000000    66.46000000    33.53000000
   O     32.31000000    65.29000000    33.16000000
   H     33.60000000    69.52000000    33.57000000
   H     34.21000000    66.80000000    33.70000000
   H     33.48000000    67.66000000    32.29000000
   N     30.97000000    66.88000000    33.91000000
   C     29.77000000    66.06000000    33.82000000
   C     28.59000000    66.88000000    33.33000000
   O     28.32000000    67.94000000    33.91000000
   C     29.40000000    65.43000000    35.16000000
   C     28.64000000    64.15000000    34.81000000
   O     30.50000000    65.06000000    35.96000000
   H     30.83000000    67.82000000    34.23000000
   H     30.00000000    65.28000000    33.09000000
   H     28.72000000    66.02000000    35.78000000
   H     30.92000000    65.84000000    36.32000000
   H     27.74000000    64.37000000    34.24000000
   H     29.26000000    63.53000000    34.16000000
   H     28.41000000    63.61000000    35.73000000
   N     27.89000000    66.43000000    32.28000000
   C     27.11000000    67.31000000    31.44000000
   C     25.61000000    67.08000000    31.56000000
   O     25.14000000    65.95000000    31.64000000
   C     27.63000000    67.34000000    30.01000000
   C     29.03000000    67.95000000    29.94000000
   C     26.76000000    68.20000000    29.10000000
   C     29.53000000    67.67000000    28.53000000
   H     28.05000000    65.50000000    31.92000000
   H     27.32000000    68.33000000    31.78000000
   H     27.60000000    66.29000000    29.72000000
   H     29.65000000    67.41000000    30.65000000
   H     29.14000000    69.02000000    30.13000000
   H     27.15000000    68.21000000    28.08000000
   H     25.77000000    67.74000000    29.09000000
   H     26.71000000    69.21000000    29.51000000
   H     29.00000000    66.82000000    28.10000000
   H     29.29000000    68.60000000    28.01000000
   H     30.61000000    67.59000000    28.47000000
   N     24.79000000    68.13000000    31.47000000
   C     23.38000000    68.11000000    31.79000000
   C     22.45000000    68.57000000    30.68000000
   O     22.88000000    69.16000000    29.68000000
   C     23.05000000    69.11000000    32.89000000
   C     23.74000000    68.72000000    34.19000000
   O     23.47000000    70.44000000    32.69000000
   H     25.27000000    69.00000000    31.31000000
   H     23.14000000    67.08000000    32.09000000
   H     21.99000000    69.07000000    33.15000000
   H     24.40000000    70.34000000    32.94000000
   H     23.67000000    69.50000000    34.95000000
   H     23.28000000    67.79000000    34.51000000
   H     24.77000000    68.38000000    34.12000000
   N     21.13000000    68.38000000    30.74000000
   C     20.10000000    69.08000000    30.00000000
   C     20.29000000    70.59000000    30.01000000
   O     20.09000000    71.20000000    28.96000000
   C     18.70000000    68.83000000    30.56000000
   C     18.15000000    67.41000000    30.47000000
   O     18.62000000    69.26000000    31.90000000
   H     20.80000000    67.77000000    31.47000000
   H     20.18000000    68.65000000    29.01000000
   H     18.06000000    69.49000000    29.98000000
   H     17.67000000    69.27000000    32.05000000
   H     18.87000000    66.70000000    30.90000000
   H     17.19000000    67.31000000    30.97000000
   H     17.94000000    67.18000000    29.43000000
   N     20.89000000    71.17000000    31.05000000
   C     21.11000000    72.60000000    31.06000000
   C     22.29000000    73.06000000    30.21000000
   O     22.45000000    74.25000000    29.99000000
   C     21.29000000    73.20000000    32.45000000
   C     20.36000000    72.67000000    33.54000000
   C     20.60000000    73.30000000    34.91000000
   C     19.70000000    72.67000000    35.97000000
   N     18.32000000    73.14000000    35.76000000
   H     21.00000000    70.63000000    31.90000000
   H     20.24000000    73.13000000    30.67000000
   H     21.19000000    74.29000000    32.39000000
   H     22.34000000    72.96000000    32.62000000
   H     20.56000000    71.61000000    33.70000000
   H     19.32000000    72.74000000    33.24000000
   H     20.63000000    74.39000000    35.02000000
   H     21.60000000    72.99000000    35.20000000
   H     19.95000000    72.94000000    36.99000000
   H     19.79000000    71.59000000    35.87000000
   H     17.83000000    73.07000000    36.64000000
   H     18.38000000    74.11000000    35.52000000
   H     17.91000000    72.60000000    35.00000000
   N     23.27000000    72.19000000    29.95000000
   C     24.47000000    72.42000000    29.17000000
   C     24.35000000    72.09000000    27.69000000
   O     24.84000000    72.93000000    26.93000000
   C     25.55000000    71.56000000    29.81000000
   C     26.05000000    72.16000000    31.12000000
   C     26.83000000    71.08000000    31.86000000
   O     26.30000000    70.36000000    32.74000000
   O     28.06000000    70.90000000    31.70000000
   H     23.25000000    71.31000000    30.45000000
   H     24.81000000    73.45000000    29.24000000
   H     26.47000000    71.45000000    29.22000000
   H     25.06000000    70.59000000    29.90000000
   H     25.24000000    72.51000000    31.76000000
   H     26.63000000    73.07000000    30.96000000
   N     23.72000000    71.01000000    27.23000000
   C     23.98000000    70.41000000    25.94000000
   H     25.01800000    70.08000000    25.89600000
   H     23.32000000    69.55400000    25.79700000
   H     23.79900000    71.14400000    25.15400000
   H     23.15000000    70.52000000    27.91000000
  Ca     28.80000000    70.54000000    34.12000000
   O     26.43000000    70.33000000    35.77000000
   H     26.00000000    70.64000000    36.57000000
   H     25.82000000    70.57000000    35.07000000

Ca 1.00



