%chk=loop1.holoCaM.run24.water2.chk
%nprocshared=20
%mem=10GB
%nosave
#b3lyp/svp scf=(tight,noincore,xqc) Test 
#IOP(5/87=12) Density=Current Pop=(MK,readradii) iop(6/33=2) iop(6/42=6)

loop1.holoCaM.run24.water2 

   0  1 
   C     58.03000000    66.46000000    15.45000000
   C     56.70000000    67.04000000    15.00000000
   O     56.66000000    67.61000000    13.91000000
   H     58.76000000    67.26300000    15.55100000
   H     57.90300000    65.96200000    16.41100000
   H     58.38200000    65.74000000    14.71100000
   N     55.65000000    67.08000000    15.82000000
   C     54.53000000    68.00000000    15.71000000
   C     55.02000000    69.39000000    16.07000000
   O     55.34000000    69.64000000    17.23000000
   C     53.42000000    67.52000000    16.64000000
   C     52.16000000    68.37000000    16.73000000
   O     51.36000000    68.14000000    17.65000000
   O     51.82000000    69.04000000    15.73000000
   H     55.66000000    66.45000000    16.61000000
   H     54.26000000    67.94000000    14.66000000
   H     53.83000000    67.48000000    17.65000000
   H     53.13000000    66.51000000    16.34000000
   N     54.90000000    70.35000000    15.14000000
   C     55.36000000    71.70000000    15.36000000
   C     54.31000000    72.66000000    15.90000000
   O     54.67000000    73.49000000    16.73000000
   C     55.83000000    72.17000000    13.98000000
   C     56.09000000    73.66000000    13.80000000
   C     56.85000000    73.92000000    12.50000000
   C     56.97000000    75.43000000    12.27000000
   N     55.80000000    75.90000000    11.52000000
   H     54.55000000    70.23000000    14.20000000
   H     56.23000000    71.62000000    16.02000000
   H     55.18000000    71.78000000    13.20000000
   H     56.78000000    71.67000000    13.76000000
   H     56.69000000    73.99000000    14.64000000
   H     55.10000000    74.11000000    13.81000000
   H     56.30000000    73.40000000    11.72000000
   H     57.87000000    73.55000000    12.61000000
   H     57.90000000    75.65000000    11.75000000
   H     57.00000000    75.98000000    13.20000000
   H     55.72000000    75.52000000    10.58000000
   H     54.94000000    75.78000000    12.02000000
   H     55.97000000    76.89000000    11.35000000
   N     53.07000000    72.56000000    15.41000000
   C     51.92000000    73.30000000    15.89000000
   C     51.21000000    72.69000000    17.10000000
   O     50.46000000    73.36000000    17.80000000
   C     51.08000000    73.79000000    14.72000000
   C     50.73000000    72.68000000    13.74000000
   O     50.16000000    73.06000000    12.69000000
   O     50.87000000    71.47000000    14.00000000
   H     52.89000000    71.97000000    14.61000000
   H     52.26000000    74.26000000    16.27000000
   H     51.71000000    74.51000000    14.18000000
   H     50.29000000    74.43000000    15.11000000
   N     51.56000000    71.48000000    17.52000000
   C     51.22000000    70.99000000    18.84000000
   C     49.77000000    70.54000000    18.98000000
   O     49.20000000    70.71000000    20.06000000
   H     51.92000000    70.83000000    16.83000000
   H     51.33000000    71.75000000    19.61000000
   H     51.86000000    70.16000000    19.14000000
   N     49.20000000    69.98000000    17.92000000
   C     47.89000000    69.36000000    17.88000000
   C     47.78000000    67.87000000    18.21000000
   O     46.68000000    67.39000000    18.47000000
   C     47.21000000    69.76000000    16.57000000
   C     48.00000000    69.15000000    15.42000000
   O     48.25000000    69.87000000    14.42000000
   O     48.51000000    68.01000000    15.46000000
   H     49.82000000    69.91000000    17.12000000
   H     47.24000000    69.88000000    18.58000000
   H     47.13000000    70.84000000    16.48000000
   H     46.21000000    69.32000000    16.59000000
   N     48.89000000    67.14000000    18.26000000
   C     49.01000000    65.72000000    18.52000000
   C     49.01000000    64.80000000    17.31000000
   O     48.96000000    63.58000000    17.49000000
   H     49.75000000    67.66000000    18.14000000
   H     48.17000000    65.47000000    19.17000000
   H     49.93000000    65.55000000    19.07000000
   N     49.22000000    65.35000000    16.11000000
   C     49.23000000    64.68000000    14.83000000
   C     50.32000000    65.26000000    13.93000000
   O     50.71000000    66.42000000    13.99000000
   C     47.86000000    64.68000000    14.15000000
   C     46.69000000    63.95000000    14.82000000
   O     47.46000000    66.03000000    14.00000000
   H     49.24000000    66.36000000    16.11000000
   H     49.50000000    63.64000000    14.98000000
   H     47.92000000    64.30000000    13.13000000
   H     47.76000000    66.45000000    14.81000000
   H     45.88000000    64.18000000    14.13000000
   H     46.78000000    62.87000000    14.86000000
   H     46.52000000    64.19000000    15.87000000
   N     50.72000000    64.42000000    12.97000000
   C     51.84000000    64.71000000    12.10000000
   C     51.31000000    64.55000000    10.68000000
   O     50.73000000    63.59000000    10.17000000
   C     53.03000000    63.80000000    12.38000000
   C     53.81000000    64.37000000    13.56000000
   C     54.04000000    63.50000000    11.27000000
   C     54.81000000    63.39000000    14.16000000
   H     50.49000000    63.44000000    12.98000000
   H     52.25000000    65.71000000    12.25000000
   H     52.60000000    62.90000000    12.81000000
   H     53.18000000    64.64000000    14.41000000
   H     54.36000000    65.28000000    13.34000000
   H     54.71000000    62.71000000    11.59000000
   H     53.60000000    63.28000000    10.30000000
   H     54.53000000    64.46000000    11.14000000
   H     55.80000000    63.27000000    13.72000000
   H     55.02000000    63.78000000    15.16000000
   H     54.34000000    62.42000000    14.36000000
   N     51.53000000    65.63000000     9.94000000
   C     51.21000000    65.67000000     8.52000000
   C     52.48000000    65.78000000     7.69000000
   O     53.61000000    65.69000000     8.16000000
   C     50.18000000    66.76000000     8.23000000
   C     50.69000000    68.20000000     8.30000000
   O     49.47000000    66.49000000     7.04000000
   H     51.91000000    66.46000000    10.37000000
   H     50.78000000    64.72000000     8.20000000
   H     49.42000000    66.70000000     9.00000000
   H     48.72000000    67.10000000     7.06000000
   H     51.00000000    68.60000000     9.26000000
   H     51.44000000    68.28000000     7.51000000
   H     49.96000000    68.98000000     8.06000000
   N     52.30000000    65.83000000     6.37000000
   C     53.38000000    65.49000000     5.47000000
   C     54.66000000    66.30000000     5.60000000
   O     55.72000000    65.67000000     5.58000000
   C     52.82000000    65.53000000     4.05000000
   C     53.73000000    64.87000000     3.02000000
   O     51.53000000    64.99000000     3.92000000
   H     51.40000000    65.65000000     5.93000000
   H     53.65000000    64.47000000     5.74000000
   H     52.75000000    66.58000000     3.76000000
   H     51.30000000    65.17000000     3.01000000
   H     53.48000000    65.12000000     1.99000000
   H     54.81000000    64.98000000     3.12000000
   H     53.52000000    63.81000000     3.16000000
   N     54.57000000    67.60000000     5.91000000
   C     55.65000000    68.55000000     6.09000000
   C     56.30000000    68.29000000     7.45000000
   O     57.48000000    68.60000000     7.58000000
   C     55.16000000    69.97000000     5.86000000
   C     54.95000000    70.32000000     4.39000000
   C     54.35000000    71.72000000     4.35000000
   C     54.18000000    72.15000000     2.90000000
   N     52.93000000    71.61000000     2.33000000
   H     53.63000000    67.95000000     5.96000000
   H     56.39000000    68.21000000     5.36000000
   H     55.86000000    70.72000000     6.23000000
   H     54.23000000    70.12000000     6.40000000
   H     54.40000000    69.68000000     3.69000000
   H     55.97000000    70.42000000     4.00000000
   H     55.06000000    72.43000000     4.77000000
   H     53.47000000    71.84000000     4.99000000
   H     55.07000000    71.83000000     2.35000000
   H     54.18000000    73.24000000     2.96000000
   H     52.13000000    71.90000000     2.88000000
   H     52.74000000    71.85000000     1.37000000
   H     52.93000000    70.60000000     2.32000000
   N     55.55000000    67.71000000     8.39000000
   C     56.16000000    67.33000000     9.65000000
   C     56.86000000    65.97000000     9.57000000
   O     57.87000000    65.79000000    10.24000000
   C     55.11000000    67.30000000    10.75000000
   C     54.45000000    68.64000000    11.07000000
   C     53.25000000    68.70000000    12.01000000
   O     52.24000000    68.00000000    11.80000000
   O     53.10000000    69.65000000    12.81000000
   H     54.62000000    67.36000000     8.20000000
   H     56.87000000    68.05000000    10.03000000
   H     55.56000000    66.96000000    11.68000000
   H     54.34000000    66.56000000    10.57000000
   H     54.10000000    69.08000000    10.13000000
   H     55.23000000    69.28000000    11.48000000
   N     56.41000000    65.08000000     8.69000000
   C     57.06000000    63.82000000     8.39000000
   H     58.03100000    63.78600000     8.88400000
   H     56.44100000    62.99700000     8.74800000
   H     57.19800000    63.72900000     7.31300000
   H     55.63000000    65.35000000     8.10000000
  Ca     50.59000000    69.02000000    13.49000000
   O     49.54000000    70.58000000    11.56000000
   H     49.35000000    70.48000000    10.62000000
   H     49.32000000    71.49000000    11.76000000
   O     48.70000000    67.74000000    11.95000000
   H     48.13000000    67.91000000    11.20000000
   H     48.12000000    67.36000000    12.61000000

Ca 1.00



