%chk=loop1.holoCaM.run82.water2.chk
%nprocshared=20
%mem=10GB
%nosave
#b3lyp/svp scf=(tight,noincore,xqc) Test 
#IOP(5/87=12) Density=Current Pop=(MK,readradii) iop(6/33=2) iop(6/42=6)

loop1.holoCaM.run82.water2 

   0  1 
   C     38.99000000    73.47000000    46.60000000
   C     38.00000000    72.75000000    47.51000000
   O     36.82000000    73.08000000    47.44000000
   H     39.93300000    72.92300000    46.58500000
   H     38.58400000    73.52200000    45.59000000
   H     39.16200000    74.47900000    46.97500000
   N     38.45000000    71.93000000    48.45000000
   C     37.57000000    71.28000000    49.41000000
   C     37.22000000    72.28000000    50.50000000
   O     37.82000000    72.25000000    51.57000000
   C     38.23000000    70.02000000    49.95000000
   C     37.23000000    69.19000000    50.75000000
   O     36.01000000    69.46000000    50.64000000
   O     37.74000000    68.23000000    51.36000000
   H     39.45000000    71.75000000    48.45000000
   H     36.62000000    71.06000000    48.92000000
   H     39.11000000    70.25000000    50.54000000
   H     38.59000000    69.44000000    49.09000000
   N     36.24000000    73.16000000    50.30000000
   C     35.72000000    74.15000000    51.23000000
   C     34.73000000    73.61000000    52.25000000
   O     33.99000000    74.46000000    52.73000000
   C     35.17000000    75.40000000    50.54000000
   C     36.00000000    76.03000000    49.42000000
   C     37.39000000    76.51000000    49.82000000
   C     37.37000000    77.48000000    51.00000000
   N     36.88000000    78.83000000    50.70000000
   H     35.68000000    73.14000000    49.46000000
   H     36.57000000    74.47000000    51.83000000
   H     34.98000000    76.11000000    51.34000000
   H     34.16000000    75.12000000    50.24000000
   H     35.51000000    76.89000000    48.97000000
   H     36.04000000    75.25000000    48.66000000
   H     37.80000000    76.98000000    48.92000000
   H     38.02000000    75.69000000    50.15000000
   H     38.38000000    77.67000000    51.36000000
   H     36.72000000    77.15000000    51.80000000
   H     35.89000000    78.68000000    50.57000000
   H     36.78000000    79.43000000    51.51000000
   H     37.34000000    79.24000000    49.90000000
   N     34.96000000    72.38000000    52.73000000
   C     34.51000000    71.90000000    54.02000000
   C     35.19000000    70.61000000    54.46000000
   O     34.98000000    70.13000000    55.58000000
   C     32.99000000    71.75000000    53.97000000
   C     32.43000000    70.77000000    52.95000000
   O     31.20000000    70.74000000    52.72000000
   O     33.25000000    70.34000000    52.11000000
   H     35.39000000    71.74000000    52.08000000
   H     34.75000000    72.57000000    54.84000000
   H     32.53000000    72.73000000    53.89000000
   H     32.59000000    71.33000000    54.89000000
   N     36.23000000    70.15000000    53.77000000
   C     37.21000000    69.29000000    54.42000000
   C     36.57000000    67.93000000    54.66000000
   O     36.88000000    67.37000000    55.71000000
   H     36.25000000    70.14000000    52.76000000
   H     37.59000000    69.82000000    55.30000000
   H     38.12000000    69.14000000    53.84000000
   N     35.72000000    67.49000000    53.72000000
   C     35.02000000    66.22000000    53.71000000
   C     35.70000000    65.14000000    52.88000000
   O     35.28000000    64.00000000    53.03000000
   C     33.58000000    66.45000000    53.24000000
   C     33.34000000    66.98000000    51.83000000
   O     34.13000000    66.82000000    50.88000000
   O     32.26000000    67.53000000    51.52000000
   H     35.55000000    68.23000000    53.05000000
   H     34.88000000    65.87000000    54.73000000
   H     33.12000000    67.24000000    53.84000000
   H     33.05000000    65.53000000    53.45000000
   N     36.62000000    65.51000000    51.99000000
   C     37.30000000    64.61000000    51.08000000
   C     36.78000000    64.55000000    49.65000000
   O     37.22000000    63.65000000    48.93000000
   H     36.95000000    66.47000000    51.99000000
   H     37.31000000    63.57000000    51.43000000
   H     38.37000000    64.79000000    51.06000000
   N     36.01000000    65.53000000    49.21000000
   C     35.31000000    65.62000000    47.94000000
   C     35.05000000    67.01000000    47.35000000
   O     34.81000000    67.95000000    48.11000000
   C     33.96000000    64.90000000    48.02000000
   C     34.18000000    63.48000000    47.51000000
   O     33.32000000    64.89000000    49.28000000
   H     35.71000000    66.22000000    49.89000000
   H     35.88000000    65.07000000    47.20000000
   H     33.28000000    65.38000000    47.32000000
   H     33.83000000    65.52000000    49.79000000
   H     34.54000000    62.76000000    48.24000000
   H     33.20000000    63.16000000    47.14000000
   H     34.79000000    63.52000000    46.61000000
   N     35.09000000    67.16000000    46.03000000
   C     34.88000000    68.42000000    45.35000000
   C     33.50000000    68.42000000    44.69000000
   O     33.06000000    67.39000000    44.18000000
   C     36.02000000    68.84000000    44.42000000
   C     37.34000000    68.32000000    44.99000000
   C     36.10000000    70.35000000    44.26000000
   C     38.51000000    69.01000000    44.30000000
   H     35.40000000    66.43000000    45.42000000
   H     35.01000000    69.13000000    46.17000000
   H     35.77000000    68.36000000    43.48000000
   H     37.40000000    67.24000000    44.87000000
   H     37.49000000    68.60000000    46.04000000
   H     35.12000000    70.81000000    44.10000000
   H     36.57000000    70.83000000    45.11000000
   H     36.58000000    70.63000000    43.32000000
   H     38.39000000    68.87000000    43.23000000
   H     38.53000000    70.10000000    44.43000000
   H     39.49000000    68.69000000    44.66000000
   N     32.64000000    69.43000000    44.85000000
   C     31.27000000    69.49000000    44.40000000
   C     31.15000000    70.29000000    43.11000000
   O     32.07000000    70.98000000    42.69000000
   C     30.22000000    69.96000000    45.40000000
   C     30.33000000    69.29000000    46.77000000
   O     30.25000000    71.36000000    45.57000000
   H     32.86000000    70.17000000    45.50000000
   H     30.92000000    68.50000000    44.11000000
   H     29.24000000    69.78000000    44.97000000
   H     30.18000000    71.54000000    46.51000000
   H     30.15000000    68.22000000    46.60000000
   H     31.28000000    69.55000000    47.22000000
   H     29.50000000    69.53000000    47.43000000
   N     30.03000000    70.30000000    42.38000000
   C     29.62000000    71.15000000    41.28000000
   C     29.56000000    72.63000000    41.62000000
   O     29.63000000    73.43000000    40.69000000
   C     28.33000000    70.59000000    40.69000000
   C     28.69000000    69.33000000    39.89000000
   O     27.32000000    70.25000000    41.62000000
   H     29.33000000    69.64000000    42.69000000
   H     30.37000000    71.06000000    40.49000000
   H     27.89000000    71.32000000    40.01000000
   H     26.77000000    69.62000000    41.14000000
   H     29.53000000    69.55000000    39.23000000
   H     28.93000000    68.54000000    40.60000000
   H     27.80000000    69.08000000    39.32000000
   N     29.55000000    72.98000000    42.91000000
   C     29.48000000    74.33000000    43.42000000
   C     30.83000000    74.87000000    43.87000000
   O     31.08000000    76.07000000    43.92000000
   C     28.55000000    74.42000000    44.63000000
   C     27.10000000    74.04000000    44.36000000
   C     26.30000000    74.39000000    45.62000000
   C     25.46000000    75.65000000    45.46000000
   N     24.09000000    75.32000000    45.04000000
   H     29.47000000    72.20000000    43.54000000
   H     28.99000000    74.99000000    42.70000000
   H     28.57000000    75.46000000    44.96000000
   H     28.81000000    73.87000000    45.54000000
   H     26.99000000    72.99000000    44.08000000
   H     26.87000000    74.61000000    43.47000000
   H     26.87000000    74.60000000    46.52000000
   H     25.78000000    73.47000000    45.89000000
   H     25.90000000    76.16000000    44.60000000
   H     25.47000000    76.35000000    46.29000000
   H     24.10000000    74.88000000    44.13000000
   H     23.61000000    74.74000000    45.71000000
   H     23.42000000    76.08000000    44.96000000
   N     31.70000000    73.95000000    44.32000000
   C     33.07000000    74.15000000    44.73000000
   C     34.00000000    74.27000000    43.53000000
   O     35.16000000    74.65000000    43.66000000
   C     33.56000000    72.97000000    45.56000000
   C     33.06000000    73.04000000    47.00000000
   C     33.56000000    71.87000000    47.83000000
   O     33.38000000    70.68000000    47.51000000
   O     33.87000000    72.07000000    49.03000000
   H     31.39000000    72.99000000    44.24000000
   H     33.29000000    75.11000000    45.19000000
   H     34.65000000    73.05000000    45.56000000
   H     33.22000000    72.06000000    45.06000000
   H     31.97000000    73.09000000    46.95000000
   H     33.50000000    73.94000000    47.45000000
   N     33.58000000    73.92000000    42.32000000
   C     34.35000000    73.97000000    41.09000000
   H     35.34100000    73.55100000    41.26500000
   H     33.84200000    73.39100000    40.31900000
   H     34.44700000    75.00500000    40.76300000
   H     32.62000000    73.63000000    42.23000000
  Ca     33.59000000    69.45000000    49.86000000
   O     31.86000000    67.69000000    48.84000000
   H     31.31000000    67.45000000    48.09000000
   H     31.36000000    67.39000000    49.60000000
   O     31.13000000    70.22000000    50.10000000
   H     31.13000000    70.40000000    51.03000000
   H     30.45000000    70.78000000    49.73000000

Ca 1.00



