%chk=loop2.apoCaM-CA-Ng.Init31.run52.water4.chk
%nprocshared=20
%mem=10GB
%nosave
#b3lyp/svp scf=(tight,noincore,xqc) Test 
#IOP(5/87=12) Density=Current Pop=(MK,readradii) iop(6/33=2) iop(6/42=6)

loop2.apoCaM-CA-Ng.Init31.run52.water4 

   -2  1 
   C    116.19000000    84.87000000    15.91000000
   C    114.82000000    84.87000000    15.26000000
   O    113.99000000    84.03000000    15.62000000
   H    116.86800000    85.49300000    15.32700000
   H    116.11300000    85.26700000    16.92200000
   H    116.57500000    83.85100000    15.94700000
   N    114.36000000    85.74000000    14.36000000
   C    114.93000000    86.89000000    13.70000000
   C    115.18000000    86.75000000    12.20000000
   O    114.34000000    86.25000000    11.45000000
   C    114.10000000    88.13000000    14.01000000
   C    112.59000000    88.08000000    13.82000000
   O    112.14000000    87.04000000    13.28000000
   O    111.90000000    89.08000000    14.11000000
   H    113.49000000    85.44000000    13.94000000
   H    115.90000000    87.10000000    14.15000000
   H    114.54000000    88.98000000    13.49000000
   H    114.26000000    88.40000000    15.05000000
   N    116.29000000    87.30000000    11.71000000
   C    116.72000000    87.49000000    10.34000000
   C    115.85000000    88.45000000     9.55000000
   O    116.47000000    89.29000000     8.89000000
   C    116.80000000    86.13000000     9.66000000
   H    116.89000000    87.76000000    12.38000000
   H    117.77000000    87.80000000    10.28000000
   H    116.10000000    85.32000000     9.88000000
   H    116.48000000    86.26000000     8.62000000
   H    117.74000000    85.62000000     9.83000000
   N    114.52000000    88.39000000     9.57000000
   C    113.69000000    89.46000000     9.04000000
   C    112.51000000    89.60000000     9.99000000
   O    112.16000000    88.67000000    10.72000000
   C    113.13000000    89.14000000     7.65000000
   C    112.43000000    87.79000000     7.51000000
   O    112.02000000    87.45000000     6.38000000
   O    112.34000000    87.00000000     8.47000000
   H    114.02000000    87.78000000    10.20000000
   H    114.20000000    90.42000000     8.94000000
   H    113.99000000    89.14000000     6.98000000
   H    112.55000000    89.99000000     7.30000000
   N    111.90000000    90.79000000     9.92000000
   C    110.68000000    91.09000000    10.63000000
   C    109.44000000    90.44000000    10.04000000
   O    109.38000000    90.11000000     8.86000000
   H    112.17000000    91.47000000     9.23000000
   H    110.54000000    92.17000000    10.71000000
   H    110.85000000    90.80000000    11.67000000
   N    108.45000000    90.34000000    10.93000000
   C    107.19000000    89.67000000    10.70000000
   C    106.13000000    90.34000000    11.57000000
   O    106.49000000    90.90000000    12.60000000
   C    107.33000000    88.19000000    11.05000000
   C    108.22000000    87.45000000    10.06000000
   N    107.58000000    87.03000000     8.97000000
   O    109.43000000    87.31000000    10.22000000
   H    108.60000000    90.69000000    11.87000000
   H    106.82000000    89.82000000     9.69000000
   H    106.33000000    87.76000000    10.93000000
   H    107.73000000    88.05000000    12.05000000
   H    106.57000000    87.09000000     8.90000000
   H    108.15000000    86.41000000     8.41000000
   N    104.86000000    90.22000000    11.19000000
   C    103.79000000    90.81000000    11.97000000
   C    102.53000000    91.09000000    11.17000000
   O    102.56000000    91.09000000     9.94000000
   H    104.62000000    89.66000000    10.38000000
   H    104.13000000    91.70000000    12.49000000
   H    103.60000000    90.06000000    12.74000000
   N    101.37000000    91.15000000    11.82000000
   C    101.11000000    91.21000000    13.24000000
   C    101.02000000    89.84000000    13.90000000
   O    101.17000000    89.80000000    15.12000000
   C     99.80000000    91.92000000    13.55000000
   C     99.79000000    93.27000000    12.83000000
   O     98.67000000    91.18000000    13.15000000
   H    100.52000000    91.30000000    11.28000000
   H    101.94000000    91.75000000    13.71000000
   H     99.71000000    92.01000000    14.63000000
   H     98.44000000    90.57000000    13.86000000
   H     98.84000000    93.74000000    13.05000000
   H    100.53000000    93.96000000    13.22000000
   H     99.87000000    93.19000000    11.74000000
   N    101.01000000    88.77000000    13.10000000
   C    100.89000000    87.38000000    13.48000000
   C     99.55000000    87.00000000    14.09000000
   O     99.15000000    87.50000000    15.14000000
   C    102.03000000    86.88000000    14.37000000
   C    103.42000000    87.46000000    14.13000000
   C    102.05000000    85.36000000    14.26000000
   C    103.97000000    87.30000000    12.72000000
   H    100.90000000    89.00000000    12.12000000
   H    101.02000000    86.86000000    12.53000000
   H    101.67000000    87.12000000    15.37000000
   H    104.16000000    87.20000000    14.89000000
   H    103.47000000    88.53000000    14.34000000
   H    102.93000000    84.90000000    14.72000000
   H    101.14000000    85.00000000    14.74000000
   H    102.12000000    85.18000000    13.18000000
   H    103.54000000    88.02000000    12.02000000
   H    105.04000000    87.51000000    12.75000000
   H    103.78000000    86.30000000    12.35000000
   N     98.79000000    86.07000000    13.50000000
   C     99.10000000    85.32000000    12.31000000
   C     99.70000000    83.95000000    12.58000000
   O    100.61000000    83.51000000    11.87000000
   C     97.84000000    85.21000000    11.45000000
   C     96.58000000    84.76000000    12.18000000
   O     95.57000000    84.56000000    11.47000000
   O     96.44000000    84.72000000    13.42000000
   H     97.94000000    85.89000000    14.02000000
   H     99.83000000    85.82000000    11.67000000
   H     98.04000000    84.53000000    10.62000000
   H     97.60000000    86.15000000    10.97000000
   N     99.22000000    83.07000000    13.47000000
   C     99.71000000    81.73000000    13.73000000
   C     98.64000000    80.70000000    13.38000000
   O     97.47000000    81.01000000    13.61000000
   C    100.27000000    81.62000000    15.15000000
   C     99.24000000    82.01000000    16.18000000
   C     99.15000000    83.33000000    16.65000000
   C     98.37000000    81.01000000    16.64000000
   C     98.28000000    83.66000000    17.69000000
   C     97.54000000    81.34000000    17.71000000
   C     97.49000000    82.64000000    18.23000000
   H     98.49000000    83.32000000    14.11000000
   H    100.60000000    81.50000000    13.15000000
   H    101.18000000    82.21000000    15.16000000
   H    100.57000000    80.58000000    15.23000000
   H     99.76000000    84.06000000    16.15000000
   H     98.44000000    79.99000000    16.27000000
   H     98.21000000    84.67000000    18.08000000
   H     96.78000000    80.62000000    18.00000000
   H     96.85000000    82.92000000    19.05000000
   N     98.89000000    79.52000000    12.81000000
   C    100.23000000    79.07000000    12.48000000
   C    100.96000000    79.75000000    11.33000000
   O    100.37000000    80.62000000    10.69000000
   C     99.98000000    77.58000000    12.23000000
   C     98.59000000    77.45000000    11.61000000
   C     97.89000000    78.60000000    12.32000000
   H    100.86000000    79.20000000    13.37000000
   H    100.78000000    77.05000000    11.70000000
   H     99.86000000    77.04000000    13.16000000
   H     98.66000000    77.61000000    10.53000000
   H     98.18000000    76.45000000    11.71000000
   H     97.24000000    79.16000000    11.64000000
   H     97.28000000    78.28000000    13.16000000
   N    102.25000000    79.42000000    11.22000000
   C    103.16000000    80.01000000    10.26000000
   C    104.55000000    80.44000000    10.72000000
   O    105.51000000    80.67000000    10.00000000
   C    103.30000000    79.04000000     9.09000000
   C    102.14000000    79.07000000     8.10000000
   C    102.12000000    80.17000000     7.05000000
   O    102.48000000    81.32000000     7.39000000
   O    101.87000000    79.83000000     5.88000000
   H    102.70000000    78.82000000    11.90000000
   H    102.64000000    80.90000000     9.91000000
   H    103.38000000    78.04000000     9.52000000
   H    104.18000000    79.32000000     8.52000000
   H    101.20000000    79.04000000     8.66000000
   H    102.10000000    78.08000000     7.64000000
   N    104.90000000    80.41000000    12.01000000
   C    104.21000000    80.40000000    13.28000000
   H    103.20600000    79.99700000    13.14400000
   H    104.75800000    79.77800000    13.98700000
   H    104.14300000    81.41700000    13.66600000
   H    105.90000000    80.53000000    12.09000000
  Ca    111.83900000    86.08000000    10.82000000
   O    110.44900000    84.58000000     8.95000000
   H    109.49900000    84.53000000     8.92000000
   H    110.72900000    84.50000000     8.03000000
   O    109.56900000    85.31000000    12.32000000
   H    109.60900000    85.62000000    13.23000000
   H    109.07900000    84.49000000    12.37000000
   O    113.22900000    84.47000000     9.17000000
   H    113.07900000    84.98000000     8.37000000
   H    113.16900000    83.56000000     8.89000000
   O    112.34900000    83.67000000    11.82000000
   H    111.99900000    82.93000000    11.31000000
   H    113.14900000    83.33000000    12.21000000

Ca 1.00



