%chk=loop4.apoCaM-CA-Ng.Init31.run1.water7.chk
%nprocshared=20
%mem=10GB
%nosave
#b3lyp/svp scf=(tight,noincore,xqc) Test 
#IOP(5/87=12) Density=Current Pop=(MK,readradii) iop(6/33=2) iop(6/42=6)

loop4.apoCaM-CA-Ng.Init31.run1.water7 

   -3  1 
   C     48.37000000    48.57000000    32.46000000
   C     49.37000000    48.97000000    33.54000000
   O     50.53000000    48.61000000    33.33000000
   H     47.49800000    49.22200000    32.51300000
   H     48.83600000    48.66600000    31.47900000
   H     48.06000000    47.53700000    32.61600000
   N     49.19000000    49.53000000    34.74000000
   C     48.01000000    49.96000000    35.46000000
   C     48.14000000    51.42000000    35.88000000
   O     47.22000000    51.95000000    36.49000000
   C     47.65000000    49.06000000    36.64000000
   C     47.89000000    47.59000000    36.34000000
   O     47.35000000    46.91000000    35.43000000
   O     48.74000000    46.98000000    37.02000000
   H     50.07000000    49.75000000    35.17000000
   H     47.12000000    50.00000000    34.83000000
   H     46.58000000    49.15000000    36.84000000
   H     48.22000000    49.41000000    37.50000000
   N     49.17000000    52.17000000    35.48000000
   C     49.41000000    53.55000000    35.85000000
   C     49.76000000    53.79000000    37.31000000
   O     49.35000000    54.80000000    37.89000000
   C     50.26000000    54.22000000    34.77000000
   C     50.37000000    55.72000000    35.00000000
   C     51.62000000    53.54000000    34.70000000
   C     50.93000000    56.43000000    33.77000000
   H     49.71000000    51.77000000    34.72000000
   H     48.46000000    54.06000000    35.69000000
   H     49.76000000    54.01000000    33.82000000
   H     51.05000000    55.93000000    35.83000000
   H     49.46000000    56.27000000    35.25000000
   H     52.09000000    53.64000000    35.67000000
   H     51.56000000    52.48000000    34.42000000
   H     52.33000000    53.99000000    34.00000000
   H     51.16000000    57.46000000    34.03000000
   H     51.88000000    56.05000000    33.38000000
   H     50.13000000    56.39000000    33.03000000
   N     50.47000000    52.87000000    37.98000000
   C     50.85000000    52.91000000    39.37000000
   C     50.96000000    51.55000000    40.04000000
   O     51.25000000    51.35000000    41.22000000
   C     52.15000000    53.70000000    39.31000000
   C     52.83000000    53.85000000    40.66000000
   O     52.25000000    54.39000000    41.63000000
   O     54.02000000    53.47000000    40.77000000
   H     50.80000000    52.14000000    37.36000000
   H     50.11000000    53.46000000    39.96000000
   H     51.99000000    54.69000000    38.87000000
   H     52.90000000    53.16000000    38.73000000
   N     50.73000000    50.43000000    39.35000000
   C     51.02000000    49.08000000    39.79000000
   C     52.49000000    48.76000000    39.55000000
   O     53.33000000    49.51000000    39.06000000
   H     50.46000000    50.53000000    38.38000000
   H     50.46000000    48.34000000    39.23000000
   H     50.77000000    49.00000000    40.85000000
   N     52.82000000    47.51000000    39.90000000
   C     54.14000000    46.93000000    39.98000000
   C     54.30000000    45.92000000    41.10000000
   O     53.29000000    45.40000000    41.57000000
   C     54.50000000    46.42000000    38.59000000
   C     53.44000000    45.52000000    37.96000000
   O     52.82000000    45.82000000    36.92000000
   O     53.29000000    44.37000000    38.44000000
   H     52.10000000    46.98000000    40.36000000
   H     54.82000000    47.77000000    40.15000000
   H     55.43000000    45.88000000    38.74000000
   H     54.78000000    47.24000000    37.92000000
   N     55.50000000    45.55000000    41.57000000
   C     56.78000000    46.15000000    41.27000000
   C     57.02000000    47.59000000    41.72000000
   O     56.35000000    48.08000000    42.63000000
   H     55.45000000    45.00000000    42.41000000
   H     56.98000000    46.04000000    40.21000000
   H     57.59000000    45.62000000    41.77000000
   N     58.10000000    48.21000000    41.26000000
   C     58.99000000    48.12000000    40.12000000
   C     58.34000000    48.29000000    38.75000000
   O     57.12000000    48.27000000    38.61000000
   C     59.85000000    46.86000000    40.13000000
   C     60.47000000    46.41000000    41.44000000
   C     61.54000000    47.38000000    41.93000000
   N     62.39000000    47.05000000    42.89000000
   O     61.49000000    48.57000000    41.62000000
   H     58.33000000    49.09000000    41.71000000
   H     59.60000000    49.02000000    40.19000000
   H     60.64000000    46.89000000    39.37000000
   H     59.18000000    46.05000000    39.84000000
   H     61.01000000    45.47000000    41.28000000
   H     59.77000000    46.35000000    42.28000000
   H     62.54000000    46.06000000    43.03000000
   H     63.13000000    47.64000000    43.24000000
   N     59.13000000    48.50000000    37.70000000
   C     58.74000000    48.62000000    36.31000000
   C     59.67000000    49.61000000    35.62000000
   O     60.83000000    49.70000000    36.02000000
   C     58.69000000    47.32000000    35.52000000
   C     57.61000000    46.35000000    35.98000000
   C     60.02000000    46.56000000    35.62000000
   H     60.07000000    48.68000000    38.00000000
   H     57.71000000    48.99000000    36.24000000
   H     58.53000000    47.60000000    34.48000000
   H     56.65000000    46.84000000    36.08000000
   H     57.43000000    45.52000000    35.30000000
   H     57.84000000    46.00000000    36.99000000
   H     60.02000000    45.63000000    35.06000000
   H     60.74000000    47.26000000    35.19000000
   H     60.25000000    46.34000000    36.66000000
   N     59.14000000    50.38000000    34.66000000
   C     59.93000000    51.36000000    33.94000000
   C     59.65000000    51.26000000    32.44000000
   O     60.52000000    51.03000000    31.60000000
   C     59.58000000    52.78000000    34.38000000
   C     60.14000000    53.13000000    35.76000000
   N     59.42000000    52.81000000    36.83000000
   O     61.17000000    53.78000000    35.87000000
   H     58.15000000    50.31000000    34.49000000
   H     60.99000000    51.11000000    34.02000000
   H     58.53000000    53.06000000    34.34000000
   H     60.06000000    53.50000000    33.72000000
   H     58.55000000    52.30000000    36.81000000
   H     59.87000000    52.87000000    37.73000000
   N     58.40000000    51.34000000    31.99000000
   C     57.90000000    50.86000000    30.71000000
   C     57.91000000    49.34000000    30.59000000
   O     58.81000000    48.64000000    31.03000000
   C     58.46000000    51.67000000    29.55000000
   C     58.46000000    51.08000000    28.16000000
   C     59.49000000    50.18000000    27.85000000
   C     57.59000000    51.43000000    27.12000000
   C     59.73000000    49.70000000    26.55000000
   C     57.66000000    50.78000000    25.88000000
   C     58.76000000    49.95000000    25.56000000
   O     58.78000000    49.29000000    24.37000000
   H     57.72000000    51.48000000    32.72000000
   H     56.87000000    51.19000000    30.82000000
   H     59.52000000    51.85000000    29.73000000
   H     57.93000000    52.62000000    29.50000000
   H     60.12000000    49.80000000    28.63000000
   H     56.87000000    52.20000000    27.33000000
   H     60.58000000    49.05000000    26.44000000
   H     56.95000000    51.09000000    25.13000000
   H     57.99000000    49.34000000    23.82000000
   N     56.92000000    48.78000000    29.88000000
   C     56.96000000    47.42000000    29.39000000
   C     55.51000000    46.98000000    29.19000000
   O     54.94000000    47.16000000    28.12000000
   C     57.80000000    47.29000000    28.12000000
   C     58.00000000    46.05000000    27.26000000
   C     58.76000000    44.94000000    27.96000000
   O     60.00000000    44.79000000    27.87000000
   O     58.11000000    44.09000000    28.61000000
   H     56.12000000    49.33000000    29.61000000
   H     57.40000000    46.69000000    30.07000000
   H     58.81000000    47.65000000    28.31000000
   H     57.38000000    48.00000000    27.41000000
   H     58.48000000    46.33000000    26.33000000
   H     57.02000000    45.74000000    26.89000000
   N     54.91000000    46.34000000    30.19000000
   C     53.49000000    46.06000000    30.11000000
   C     52.62000000    47.30000000    30.16000000
   O     51.65000000    47.48000000    29.42000000
   C     53.12000000    45.14000000    31.27000000
   C     51.63000000    44.83000000    31.42000000
   C     51.26000000    43.97000000    32.62000000
   O     50.45000000    43.04000000    32.41000000
   O     51.80000000    44.14000000    33.73000000
   H     55.50000000    46.02000000    30.95000000
   H     53.35000000    45.50000000    29.19000000
   H     53.55000000    45.49000000    32.21000000
   H     53.53000000    44.14000000    31.14000000
   H     51.35000000    44.24000000    30.55000000
   H     51.02000000    45.73000000    31.45000000
   N     53.18000000    48.36000000    30.75000000
   C     52.77000000    49.74000000    30.56000000
   H     51.82700000    49.91300000    31.07800000
   H     53.53300000    50.40500000    30.96400000
   H     52.64100000    49.93800000    29.49600000
   H     53.99000000    48.26000000    31.33000000
  Ca     50.18000000    42.58000000    34.95000000
   O     50.34000000    44.98000000    36.46000000
   H     49.71000000    45.69000000    36.56000000
   H     51.20000000    45.40000000    36.56000000
   O     48.09000000    41.42000000    33.53000000
   H     48.32000000    40.52000000    33.29000000
   H     47.31000000    41.62000000    33.01000000
   O     52.18000000    41.09000000    34.16000000
   H     52.41000000    40.16000000    34.24000000
   H     53.00000000    41.51000000    33.91000000
   O     49.97000000    40.02000000    35.93000000
   H     50.62000000    39.35000000    35.71000000
   H     49.14000000    39.55000000    35.96000000
   O     48.37000000    44.44000000    34.16000000
   H     47.46000000    44.22000000    33.97000000
   H     48.39000000    45.40000000    34.19000000
   O     52.40000000    42.54000000    36.91000000
   H     52.70000000    41.80000000    37.43000000
   H     52.86000000    43.30000000    37.28000000
   O     48.79000000    42.60000000    37.19000000
   H     48.08000000    43.24000000    37.17000000
   H     48.76000000    42.24000000    38.08000000

Ca 1.00



