%chk=loop4.apoCaM-CA-Ng.Init293.run72.water3.chk
%nprocshared=20
%mem=10GB
%nosave
#b3lyp/svp scf=(tight,noincore,xqc) Test 
#IOP(5/87=12) Density=Current Pop=(MK,readradii) iop(6/33=2) iop(6/42=6)

loop4.apoCaM-CA-Ng.Init293.run72.water3 

   -3  1 
   C     61.69000000    72.61000000    54.29000000
   C     60.28000000    72.07000000    54.46000000
   O     59.27000000    72.66000000    54.07000000
   H     62.36800000    71.78800000    54.05800000
   H     61.70600000    73.33500000    53.47600000
   H     62.00900000    73.09300000    55.21400000
   N     60.20000000    70.85000000    54.98000000
   C     59.12000000    69.98000000    55.39000000
   C     57.95000000    69.83000000    54.43000000
   O     57.02000000    69.07000000    54.69000000
   C     58.80000000    70.28000000    56.85000000
   C     57.80000000    71.40000000    57.11000000
   O     57.30000000    72.10000000    56.21000000
   O     57.58000000    71.77000000    58.28000000
   H     61.11000000    70.46000000    55.18000000
   H     59.69000000    69.05000000    55.34000000
   H     59.69000000    70.28000000    57.48000000
   H     58.33000000    69.38000000    57.23000000
   N     58.01000000    70.46000000    53.25000000
   C     56.92000000    70.37000000    52.30000000
   C     55.74000000    71.26000000    52.68000000
   O     55.95000000    72.41000000    53.06000000
   C     57.37000000    70.69000000    50.88000000
   C     58.26000000    69.56000000    50.37000000
   C     57.93000000    72.11000000    50.80000000
   C     58.70000000    69.62000000    48.91000000
   H     58.74000000    71.14000000    53.08000000
   H     56.52000000    69.36000000    52.18000000
   H     56.47000000    70.64000000    50.28000000
   H     57.72000000    68.62000000    50.46000000
   H     59.21000000    69.51000000    50.89000000
   H     58.94000000    72.14000000    51.20000000
   H     58.10000000    72.34000000    49.75000000
   H     57.24000000    72.89000000    51.11000000
   H     57.82000000    69.40000000    48.30000000
   H     59.07000000    70.61000000    48.62000000
   H     59.45000000    68.89000000    48.62000000
   N     54.52000000    70.76000000    52.49000000
   C     53.29000000    71.46000000    52.77000000
   C     53.06000000    71.58000000    54.27000000
   O     53.48000000    70.73000000    55.05000000
   C     52.15000000    70.71000000    52.07000000
   C     51.98000000    69.25000000    52.48000000
   O     52.51000000    68.31000000    51.85000000
   O     51.17000000    69.04000000    53.41000000
   H     54.45000000    69.76000000    52.33000000
   H     53.29000000    72.48000000    52.38000000
   H     52.42000000    70.72000000    51.02000000
   H     51.17000000    71.17000000    52.18000000
   N     52.35000000    72.58000000    54.80000000
   C     52.12000000    73.86000000    54.15000000
   C     53.38000000    74.66000000    53.83000000
   O     54.44000000    74.42000000    54.41000000
   H     51.96000000    72.44000000    55.71000000
   H     51.50000000    74.41000000    54.86000000
   H     51.57000000    73.60000000    53.25000000
   N     53.37000000    75.76000000    53.08000000
   C     52.31000000    76.05000000    52.13000000
   C     52.79000000    76.83000000    50.91000000
   O     53.31000000    77.93000000    51.13000000
   C     51.18000000    76.86000000    52.74000000
   C     50.10000000    77.26000000    51.75000000
   O     49.90000000    78.45000000    51.41000000
   O     49.37000000    76.40000000    51.21000000
   H     54.26000000    76.23000000    53.05000000
   H     51.90000000    75.10000000    51.79000000
   H     51.61000000    77.71000000    53.26000000
   H     50.70000000    76.24000000    53.51000000
   N     52.70000000    76.36000000    49.67000000
   C     51.95000000    75.18000000    49.27000000
   C     52.10000000    74.85000000    47.80000000
   O     51.26000000    74.17000000    47.22000000
   H     52.94000000    77.05000000    48.98000000
   H     50.89000000    75.23000000    49.54000000
   H     52.43000000    74.36000000    49.80000000
   N     53.15000000    75.35000000    47.13000000
   C     53.38000000    75.38000000    45.70000000
   C     54.81000000    75.19000000    45.23000000
   O     55.24000000    75.66000000    44.17000000
   C     52.71000000    76.64000000    45.16000000
   C     53.26000000    78.03000000    45.46000000
   C     52.51000000    79.09000000    44.67000000
   N     51.77000000    79.90000000    45.43000000
   O     52.59000000    79.26000000    43.45000000
   H     53.71000000    76.01000000    47.64000000
   H     52.81000000    74.60000000    45.19000000
   H     51.70000000    76.68000000    45.58000000
   H     52.76000000    76.55000000    44.07000000
   H     54.33000000    78.15000000    45.26000000
   H     53.15000000    78.15000000    46.54000000
   H     51.85000000    79.74000000    46.42000000
   H     51.18000000    80.57000000    44.97000000
   N     55.63000000    74.51000000    46.04000000
   C     56.96000000    74.13000000    45.60000000
   C     58.01000000    74.89000000    46.40000000
   O     58.06000000    74.81000000    47.62000000
   C     57.24000000    72.63000000    45.52000000
   C     56.85000000    71.98000000    44.20000000
   C     56.98000000    71.65000000    46.66000000
   H     55.23000000    74.15000000    46.89000000
   H     57.12000000    74.58000000    44.62000000
   H     58.32000000    72.58000000    45.44000000
   H     57.11000000    70.92000000    44.18000000
   H     55.77000000    72.01000000    44.09000000
   H     57.21000000    72.54000000    43.33000000
   H     57.10000000    72.09000000    47.65000000
   H     55.90000000    71.46000000    46.59000000
   H     57.54000000    70.71000000    46.62000000
   N     58.89000000    75.59000000    45.68000000
   C     60.01000000    76.38000000    46.15000000
   C     59.60000000    77.85000000    46.05000000
   O     60.06000000    78.65000000    46.86000000
   C     61.31000000    76.11000000    45.39000000
   C     62.51000000    76.87000000    45.93000000
   N     63.15000000    77.70000000    45.10000000
   O     62.95000000    76.76000000    47.07000000
   H     58.70000000    75.56000000    44.69000000
   H     60.16000000    76.16000000    47.21000000
   H     61.25000000    76.32000000    44.32000000
   H     61.61000000    75.07000000    45.42000000
   H     62.72000000    77.90000000    44.20000000
   H     64.10000000    78.00000000    45.25000000
   N     58.67000000    78.24000000    45.18000000
   C     57.94000000    79.48000000    45.40000000
   C     57.06000000    79.30000000    46.63000000
   O     56.36000000    78.31000000    46.81000000
   C     57.25000000    79.96000000    44.13000000
   C     56.60000000    81.32000000    44.15000000
   C     57.31000000    82.40000000    44.69000000
   C     55.24000000    81.44000000    43.83000000
   C     56.70000000    83.64000000    44.92000000
   C     54.61000000    82.65000000    44.16000000
   C     55.30000000    83.72000000    44.76000000
   O     54.59000000    84.87000000    44.90000000
   H     58.31000000    77.62000000    44.48000000
   H     58.75000000    80.16000000    45.67000000
   H     56.46000000    79.22000000    43.97000000
   H     57.91000000    79.87000000    43.27000000
   H     58.37000000    82.26000000    44.85000000
   H     54.55000000    80.68000000    43.47000000
   H     57.24000000    84.53000000    45.20000000
   H     53.55000000    82.73000000    43.94000000
   H     55.19000000    85.55000000    45.22000000
   N     57.18000000    80.31000000    47.50000000
   C     56.76000000    80.42000000    48.89000000
   C     57.56000000    79.64000000    49.92000000
   O     57.27000000    79.92000000    51.09000000
   C     55.27000000    80.15000000    49.04000000
   C     54.34000000    80.83000000    48.04000000
   C     52.96000000    80.94000000    48.67000000
   O     52.03000000    80.24000000    48.21000000
   O     52.73000000    81.72000000    49.62000000
   H     57.83000000    81.06000000    47.34000000
   H     56.91000000    81.48000000    49.08000000
   H     55.08000000    80.35000000    50.10000000
   H     55.00000000    79.09000000    48.93000000
   H     54.30000000    80.25000000    47.11000000
   H     54.65000000    81.86000000    47.89000000
   N     58.52000000    78.78000000    49.59000000
   C     59.38000000    78.06000000    50.51000000
   C     60.81000000    78.58000000    50.57000000
   O     61.50000000    78.33000000    51.55000000
   C     59.45000000    76.56000000    50.25000000
   C     58.15000000    75.79000000    50.44000000
   C     57.74000000    75.47000000    51.87000000
   O     56.58000000    75.13000000    52.18000000
   O     58.52000000    75.57000000    52.84000000
   H     58.84000000    78.83000000    48.63000000
   H     59.09000000    78.17000000    51.55000000
   H     60.29000000    76.19000000    50.84000000
   H     59.67000000    76.51000000    49.18000000
   H     58.31000000    74.81000000    49.99000000
   H     57.38000000    76.36000000    49.92000000
   N     61.28000000    79.28000000    49.53000000
   C     62.42000000    80.17000000    49.48000000
   H     63.25600000    79.66200000    49.00000000
   H     62.16100000    81.06100000    48.90900000
   H     62.70300000    80.45700000    50.49300000
   H     60.71000000    79.19000000    48.70000000
  Ca     57.14000000    74.13000000    54.59000000
   O     56.67000000    76.80000000    54.91000000
   H     56.42000000    77.16000000    54.06000000
   H     57.33000000    77.41000000    55.24000000
   O     56.06000000    74.44000000    57.01000000
   H     55.16000000    74.27000000    57.28000000
   H     56.57000000    73.74000000    57.40000000
   O     59.13000000    74.70000000    56.38000000
   H     59.91000000    74.18000000    56.59000000
   H     59.14000000    75.40000000    57.03000000

Ca 1.00



