%chk=loop3.holoCaM-CaMKII.run47.water2.chk
%nprocshared=20
%mem=10GB
%nosave
#b3lyp/svp scf=(tight,noincore,xqc) Test 
#IOP(5/87=12) Density=Current Pop=(MK,readradii) iop(6/33=2) iop(6/42=6)

loop3.holoCaM-CaMKII.run47.water2 

   0  1 
   C     24.09000000    42.72000000    29.28300000
   C     25.22000000    43.31000000    30.11300000
   O     26.23000000    42.61000000    30.21300000
   H     23.25300000    43.41800000    29.26100000
   H     24.44000000    42.54200000    28.26600000
   H     23.76600000    41.77900000    29.72700000
   N     25.04000000    44.46000000    30.76300000
   C     26.02000000    44.99000000    31.68300000
   C     25.79000000    44.38000000    33.06300000
   O     24.93000000    44.88000000    33.78300000
   C     26.06000000    46.52000000    31.71300000
   C     27.15000000    47.08000000    32.61300000
   O     28.02000000    46.24000000    32.92300000
   O     27.07000000    48.26000000    33.01300000
   H     24.19000000    44.97000000    30.56300000
   H     27.02000000    44.61000000    31.46300000
   H     25.10000000    46.85000000    32.09300000
   H     26.11000000    46.97000000    30.72300000
   N     26.58000000    43.40000000    33.51300000
   C     26.27000000    42.60000000    34.68300000
   C     26.72000000    43.19000000    36.01300000
   O     25.90000000    43.33000000    36.92300000
   C     26.81000000    41.18000000    34.50300000
   C     26.31000000    40.14000000    35.50300000
   C     24.80000000    39.89000000    35.56300000
   C     24.49000000    38.69000000    36.45300000
   N     23.05000000    38.36000000    36.49300000
   H     27.40000000    43.06000000    33.02300000
   H     25.18000000    42.55000000    34.68300000
   H     27.90000000    41.17000000    34.53300000
   H     26.65000000    40.90000000    33.46300000
   H     26.80000000    40.22000000    36.47300000
   H     26.63000000    39.23000000    35.01300000
   H     24.58000000    39.56000000    34.55300000
   H     24.24000000    40.80000000    35.79300000
   H     24.80000000    38.96000000    37.46300000
   H     25.06000000    37.83000000    36.11300000
   H     22.84000000    37.69000000    37.21300000
   H     22.45000000    39.12000000    36.80300000
   H     22.63000000    37.95000000    35.67300000
   N     27.92000000    43.77000000    36.04300000
   C     28.45000000    44.47000000    37.19300000
   C     28.23000000    45.98000000    37.09300000
   O     28.70000000    46.66000000    37.99300000
   C     29.92000000    44.15000000    37.46300000
   C     30.80000000    44.48000000    36.26300000
   O     31.88000000    43.86000000    36.14300000
   O     30.39000000    45.29000000    35.40300000
   H     28.57000000    43.71000000    35.27300000
   H     27.73000000    44.23000000    37.97300000
   H     30.03000000    43.10000000    37.73300000
   H     30.25000000    44.74000000    38.31300000
   N     27.52000000    46.49000000    36.08300000
   C     26.66000000    47.66000000    36.08300000
   C     27.46000000    48.96000000    36.13300000
   O     26.87000000    49.96000000    36.53300000
   H     27.42000000    45.93000000    35.25300000
   H     25.95000000    47.56000000    36.90300000
   H     26.04000000    47.62000000    35.19300000
   N     28.69000000    48.99000000    35.61300000
   C     29.55000000    50.15000000    35.48300000
   C     29.26000000    51.02000000    34.26300000
   O     30.00000000    51.97000000    34.02300000
   C     30.99000000    49.68000000    35.61300000
   C     31.46000000    49.16000000    34.26300000
   N     32.43000000    49.85000000    33.64300000
   O     30.94000000    48.18000000    33.73300000
   H     29.07000000    48.09000000    35.35300000
   H     29.30000000    50.69000000    36.39300000
   H     31.27000000    48.92000000    36.34300000
   H     31.57000000    50.57000000    35.87300000
   H     32.66000000    50.79000000    33.92300000
   H     32.88000000    49.48000000    32.82300000
   N     28.29000000    50.68000000    33.40300000
   C     27.85000000    51.31000000    32.17300000
   C     28.60000000    50.86000000    30.93300000
   O     28.84000000    51.74000000    30.10300000
   H     27.73000000    49.87000000    33.62300000
   H     27.90000000    52.38000000    32.33300000
   H     26.82000000    50.95000000    32.07300000
   N     29.06000000    49.61000000    30.83300000
   C     29.96000000    49.09000000    29.82300000
   C     29.81000000    47.58000000    29.69300000
   O     29.92000000    46.87000000    30.69300000
   C     31.42000000    49.48000000    30.03300000
   C     31.74000000    50.92000000    29.72300000
   C     31.87000000    51.37000000    28.40300000
   C     31.90000000    51.85000000    30.75300000
   C     32.24000000    52.69000000    28.15300000
   C     32.22000000    53.18000000    30.49300000
   C     32.46000000    53.64000000    29.17300000
   O     32.84000000    54.89000000    28.79300000
   H     28.84000000    49.07000000    31.65300000
   H     29.55000000    49.50000000    28.89300000
   H     32.04000000    48.85000000    29.38300000
   H     31.73000000    49.17000000    31.03300000
   H     31.78000000    50.64000000    27.60300000
   H     31.90000000    51.52000000    31.78300000
   H     32.44000000    53.01000000    27.14300000
   H     32.41000000    53.91000000    31.26300000
   H     32.86000000    55.00000000    27.84300000
   N     29.56000000    46.97000000    28.53300000
   C     29.35000000    45.58000000    28.20300000
   C     30.69000000    45.01000000    27.76300000
   O     31.27000000    45.54000000    26.82300000
   C     28.25000000    45.35000000    27.16300000
   C     26.93000000    46.06000000    27.48300000
   C     27.94000000    43.86000000    27.16300000
   C     25.97000000    46.18000000    26.30300000
   H     29.34000000    47.65000000    27.82300000
   H     29.02000000    45.01000000    29.07300000
   H     28.66000000    45.68000000    26.20300000
   H     27.23000000    47.06000000    27.79300000
   H     26.53000000    45.65000000    28.40300000
   H     28.84000000    43.26000000    27.07300000
   H     27.44000000    43.66000000    28.11300000
   H     27.26000000    43.68000000    26.32300000
   H     25.01000000    46.53000000    26.70300000
   H     26.29000000    46.96000000    25.62300000
   H     25.70000000    45.17000000    25.99300000
   N     31.18000000    43.88000000    28.28300000
   C     32.30000000    43.09000000    27.80300000
   C     31.85000000    41.72000000    27.30300000
   O     30.71000000    41.29000000    27.46300000
   C     33.21000000    42.87000000    29.01300000
   O     32.67000000    42.40000000    30.22300000
   H     30.76000000    43.48000000    29.10300000
   H     32.81000000    43.67000000    27.04300000
   H     33.59000000    43.86000000    29.29300000
   H     34.17000000    42.38000000    28.87300000
   H     31.95000000    43.00000000    30.40300000
   N     32.74000000    41.01000000    26.60300000
   C     32.48000000    39.68000000    26.10300000
   C     31.98000000    38.63000000    27.08300000
   O     31.21000000    37.73000000    26.74300000
   C     33.77000000    39.18000000    25.46300000
   H     33.62000000    41.47000000    26.41300000
   H     31.73000000    39.75000000    25.31300000
   H     34.52000000    39.27000000    26.25300000
   H     33.53000000    38.18000000    25.12300000
   H     33.99000000    39.80000000    24.59300000
   N     32.54000000    38.68000000    28.29300000
   C     32.16000000    37.83000000    29.40300000
   C     30.77000000    38.09000000    29.99300000
   O     30.09000000    37.19000000    30.47300000
   C     33.23000000    38.12000000    30.45300000
   H     33.28000000    39.32000000    28.52300000
   H     32.24000000    36.79000000    29.11300000
   H     33.06000000    37.52000000    31.34300000
   H     34.26000000    37.88000000    30.18300000
   H     33.11000000    39.12000000    30.87300000
   N     30.21000000    39.28000000    29.80300000
   C     28.89000000    39.64000000    30.27300000
   C     27.82000000    39.41000000    29.21300000
   O     26.75000000    38.91000000    29.55300000
   C     28.87000000    41.10000000    30.73300000
   C     29.91000000    41.31000000    31.82300000
   C     30.00000000    42.79000000    32.15300000
   O     30.57000000    43.54000000    31.33300000
   O     29.70000000    43.20000000    33.30300000
   H     30.80000000    40.00000000    29.40300000
   H     28.53000000    39.05000000    31.12300000
   H     27.94000000    41.45000000    31.17300000
   H     29.18000000    41.76000000    29.91300000
   H     30.90000000    40.97000000    31.51300000
   H     29.71000000    40.66000000    32.68300000
   N     28.10000000    39.71000000    27.94300000
   C     27.46000000    39.17000000    26.76300000
   H     26.55700000    39.74100000    26.54700000
   H     28.14300000    39.23600000    25.91600000
   H     27.19600000    38.12700000    26.93700000
   H     28.83000000    40.39000000    27.80300000
  Ca     30.76000000    45.68000000    32.96000000
   O     32.95000000    46.38000000    31.66000000
   H     33.71000000    46.17000000    32.20000000
   H     33.26000000    47.06000000    31.06000000
   O     33.04000000    44.06000000    33.62000000
   H     33.73000000    43.55000000    33.19000000
   H     32.90000000    43.61000000    34.45000000

Ca 1.00



