%chk=loop2.holoCaM-CaMKII.run62.water2.chk
%nprocshared=20
%mem=10GB
%nosave
#b3lyp/svp scf=(tight,noincore,xqc) Test 
#IOP(5/87=12) Density=Current Pop=(MK,readradii) iop(6/33=2) iop(6/42=6)

loop2.holoCaM-CaMKII.run62.water2 

   -2  1 
   C      0.33000000    42.56000000    27.56000000
   C     -0.63000000    43.71000000    27.87000000
   O     -0.18000000    44.70000000    28.43000000
   H      1.26100000    42.70700000    28.10800000
   H     -0.12400000    41.61600000    27.86200000
   H      0.53800000    42.53800000    26.49000000
   N     -1.88000000    43.76000000    27.40000000
   C     -2.78000000    44.89000000    27.55000000
   C     -3.19000000    45.07000000    29.01000000
   O     -3.64000000    44.11000000    29.63000000
   C     -4.02000000    44.69000000    26.70000000
   C     -4.93000000    45.90000000    26.93000000
   O     -4.42000000    47.04000000    27.02000000
   O     -6.14000000    45.76000000    27.21000000
   H     -2.33000000    42.98000000    26.94000000
   H     -2.37000000    45.83000000    27.20000000
   H     -4.58000000    43.79000000    26.96000000
   H     -3.89000000    44.59000000    25.62000000
   N     -3.13000000    46.27000000    29.58000000
   C     -3.79000000    46.78000000    30.76000000
   C     -4.60000000    48.07000000    30.66000000
   O     -5.09000000    48.50000000    31.70000000
   C     -2.74000000    46.84000000    31.87000000
   H     -2.70000000    46.98000000    28.99000000
   H     -4.49000000    46.01000000    31.09000000
   H     -2.07000000    45.97000000    31.83000000
   H     -2.17000000    47.77000000    31.84000000
   H     -3.13000000    46.97000000    32.87000000
   N     -4.87000000    48.61000000    29.47000000
   C     -5.74000000    49.76000000    29.30000000
   C     -6.75000000    49.64000000    28.18000000
   O     -7.70000000    50.42000000    28.19000000
   C     -4.80000000    50.94000000    29.07000000
   C     -3.76000000    50.63000000    28.01000000
   O     -4.14000000    50.17000000    26.91000000
   O     -2.56000000    50.96000000    28.07000000
   H     -4.65000000    48.15000000    28.59000000
   H     -6.37000000    49.95000000    30.17000000
   H     -4.32000000    51.08000000    30.04000000
   H     -5.32000000    51.86000000    28.81000000
   N     -6.66000000    48.70000000    27.22000000
   C     -7.60000000    48.54000000    26.14000000
   C     -7.31000000    49.44000000    24.94000000
   O     -8.16000000    49.57000000    24.07000000
   H     -5.94000000    47.99000000    27.28000000
   H     -8.57000000    48.87000000    26.53000000
   H     -7.66000000    47.51000000    25.81000000
   N     -6.21000000    50.20000000    24.89000000
   C     -5.87000000    51.14000000    23.85000000
   C     -5.28000000    50.55000000    22.58000000
   O     -4.85000000    51.34000000    21.74000000
   C     -4.97000000    52.23000000    24.43000000
   C     -3.50000000    51.88000000    24.58000000
   N     -2.77000000    52.80000000    25.23000000
   O     -3.13000000    50.75000000    24.27000000
   H     -5.59000000    50.10000000    25.68000000
   H     -6.80000000    51.53000000    23.42000000
   H     -5.33000000    52.58000000    25.40000000
   H     -5.07000000    53.07000000    23.74000000
   H     -3.13000000    53.74000000    25.12000000
   H     -1.81000000    52.59000000    25.46000000
   N     -5.31000000    49.24000000    22.34000000
   C     -5.03000000    48.49000000    21.13000000
   C     -3.60000000    48.51000000    20.60000000
   O     -3.33000000    48.10000000    19.47000000
   H     -5.57000000    48.64000000    23.11000000
   H     -5.71000000    48.88000000    20.37000000
   H     -5.30000000    47.45000000    21.33000000
   N     -2.65000000    48.88000000    21.46000000
   C     -1.25000000    49.15000000    21.18000000
   C     -0.39000000    48.85000000    22.40000000
   O     -0.82000000    49.07000000    23.53000000
   C     -1.07000000    50.64000000    20.92000000
   C     -1.86000000    51.23000000    19.75000000
   O     -1.34000000    51.40000000    22.08000000
   H     -2.93000000    49.08000000    22.41000000
   H     -0.89000000    48.58000000    20.33000000
   H     -0.01000000    50.72000000    20.70000000
   H     -0.87000000    51.02000000    22.82000000
   H     -1.85000000    50.44000000    18.99000000
   H     -2.86000000    51.36000000    20.15000000
   H     -1.40000000    52.13000000    19.34000000
   N      0.90000000    48.60000000    22.15000000
   C      1.88000000    48.48000000    23.21000000
   C      2.32000000    49.87000000    23.65000000
   O      2.81000000    50.74000000    22.92000000
   C      3.03000000    47.61000000    22.72000000
   C      2.64000000    46.19000000    22.32000000
   C      4.12000000    47.58000000    23.78000000
   C      3.46000000    45.45000000    21.27000000
   H      1.24000000    48.57000000    21.20000000
   H      1.44000000    47.96000000    24.06000000
   H      3.54000000    48.14000000    21.91000000
   H      1.63000000    46.30000000    21.94000000
   H      2.52000000    45.51000000    23.17000000
   H      4.50000000    48.59000000    23.87000000
   H      3.70000000    47.15000000    24.69000000
   H      5.00000000    47.00000000    23.50000000
   H      4.51000000    45.62000000    21.48000000
   H      3.32000000    44.37000000    21.38000000
   H      3.31000000    45.87000000    20.27000000
   N      2.28000000    50.10000000    24.97000000
   C      2.85000000    51.25000000    25.65000000
   C      4.15000000    50.91000000    26.35000000
   O      4.31000000    49.75000000    26.74000000
   C      1.88000000    51.76000000    26.71000000
   C      0.48000000    52.14000000    26.26000000
   O     -0.38000000    51.25000000    26.10000000
   O      0.13000000    53.34000000    26.25000000
   H      1.62000000    49.64000000    25.57000000
   H      2.97000000    52.07000000    24.95000000
   H      2.35000000    52.61000000    27.20000000
   H      1.81000000    50.98000000    27.46000000
   N      5.11000000    51.82000000    26.53000000
   C      6.47000000    51.48000000    26.89000000
   C      6.61000000    50.71000000    28.20000000
   O      7.37000000    49.74000000    28.15000000
   C      7.28000000    52.77000000    26.97000000
   C      8.69000000    52.56000000    27.49000000
   C      9.03000000    52.98000000    28.78000000
   C      9.69000000    52.09000000    26.64000000
   C     10.36000000    52.85000000    29.21000000
   C     11.00000000    51.88000000    27.08000000
   C     11.30000000    52.19000000    28.41000000
   H      4.97000000    52.68000000    26.02000000
   H      6.88000000    50.81000000    26.14000000
   H      6.76000000    53.34000000    27.74000000
   H      7.31000000    53.27000000    26.01000000
   H      8.26000000    53.33000000    29.46000000
   H      9.41000000    51.83000000    25.62000000
   H     10.67000000    53.11000000    30.21000000
   H     11.74000000    51.36000000    26.49000000
   H     12.27000000    52.03000000    28.85000000
   N      5.81000000    50.76000000    29.26000000
   C      5.89000000    49.78000000    30.33000000
   C      5.41000000    48.39000000    29.93000000
   O      6.10000000    47.47000000    30.34000000
   C      5.07000000    50.33000000    31.49000000
   C      5.02000000    51.82000000    31.19000000
   C      4.84000000    51.75000000    29.68000000
   H      6.94000000    49.69000000    30.64000000
   H      4.01000000    50.07000000    31.55000000
   H      5.60000000    50.14000000    32.43000000
   H      4.25000000    52.43000000    31.66000000
   H      5.96000000    52.32000000    31.43000000
   H      3.82000000    51.49000000    29.39000000
   H      4.99000000    52.75000000    29.28000000
   N      4.27000000    48.29000000    29.24000000
   C      3.87000000    47.05000000    28.61000000
   C      5.01000000    46.49000000    27.77000000
   O      5.20000000    45.27000000    27.81000000
   C      2.50000000    47.10000000    27.93000000
   C      1.53000000    48.10000000    28.56000000
   C      0.27000000    48.13000000    27.71000000
   O     -0.87000000    48.17000000    28.22000000
   O      0.39000000    48.22000000    26.47000000
   H      3.88000000    49.17000000    28.92000000
   H      3.71000000    46.39000000    29.46000000
   H      2.09000000    46.10000000    27.79000000
   H      2.71000000    47.44000000    26.91000000
   H      1.98000000    49.09000000    28.55000000
   H      1.22000000    47.82000000    29.56000000
   N      5.81000000    47.28000000    27.06000000
   C      6.84000000    46.76000000    26.17000000
   H      7.75400000    46.58400000    26.73700000
   H      6.50100000    45.82300000    25.72900000
   H      7.03700000    47.48400000    25.37900000
   H      5.63000000    48.27000000    27.01000000
  Ca     -1.90300000    49.08000000    25.99000000
   O     -1.20300000    46.32000000    25.05000000
   H     -0.27300000    46.12000000    25.15000000
   H     -1.57300000    45.55000000    24.62000000
   O     -3.80300000    47.74000000    24.53000000
   H     -4.29300000    47.40000000    25.28000000
   H     -4.16300000    47.25000000    23.78000000

Ca 1.00



