%chk=loop2.apoCaM-CA-Ng.Init293.run90.water6.chk
%nprocshared=20
%mem=10GB
%nosave
#b3lyp/svp scf=(tight,noincore,xqc) Test 
#IOP(5/87=12) Density=Current Pop=(MK,readradii) iop(6/33=2) iop(6/42=6)

loop2.apoCaM-CA-Ng.Init293.run90.water6 

   -2  1 
   C     77.31000000    93.38000000    -3.30000000
   C     76.58000000    94.70000000    -3.46000000
   O     75.36000000    94.82000000    -3.53000000
   H     78.25900000    93.55000000    -2.79100000
   H     76.70000000    92.69600000    -2.71000000
   H     77.49700000    92.94600000    -4.28200000
   N     77.34000000    95.78000000    -3.67000000
   C     76.85000000    97.09000000    -4.05000000
   C     76.14000000    97.18000000    -5.39000000
   O     75.03000000    97.70000000    -5.44000000
   C     77.97000000    98.14000000    -4.04000000
   C     77.51000000    99.58000000    -4.23000000
   O     77.36000000   100.35000000    -3.26000000
   O     77.31000000    99.93000000    -5.41000000
   H     78.31000000    95.63000000    -3.42000000
   H     76.15000000    97.41000000    -3.28000000
   H     78.74000000    97.89000000    -4.77000000
   H     78.42000000    98.14000000    -3.05000000
   N     76.50000000    96.28000000    -6.30000000
   C     75.70000000    96.05000000    -7.49000000
   C     74.26000000    95.60000000    -7.30000000
   O     73.46000000    96.00000000    -8.15000000
   C     75.85000000    97.27000000    -8.40000000
   H     77.32000000    95.72000000    -6.13000000
   H     76.19000000    95.21000000    -7.98000000
   H     75.17000000    98.01000000    -7.98000000
   H     76.85000000    97.70000000    -8.41000000
   H     75.67000000    96.98000000    -9.44000000
   N     73.97000000    95.00000000    -6.14000000
   C     72.71000000    94.40000000    -5.74000000
   C     71.58000000    95.43000000    -5.77000000
   O     70.45000000    95.03000000    -6.04000000
   C     72.46000000    93.11000000    -6.51000000
   C     73.71000000    92.24000000    -6.47000000
   O     74.67000000    92.38000000    -5.68000000
   O     73.81000000    91.27000000    -7.25000000
   H     74.72000000    94.98000000    -5.47000000
   H     72.87000000    94.16000000    -4.69000000
   H     72.28000000    93.36000000    -7.55000000
   H     71.63000000    92.59000000    -6.04000000
   N     71.85000000    96.67000000    -5.36000000
   C     70.88000000    97.74000000    -5.22000000
   C     69.87000000    97.58000000    -4.09000000
   O     70.02000000    96.70000000    -3.24000000
   H     72.80000000    96.95000000    -5.20000000
   H     70.29000000    97.67000000    -6.13000000
   H     71.39000000    98.71000000    -5.15000000
   N     68.91000000    98.50000000    -4.01000000
   C     67.77000000    98.43000000    -3.12000000
   C     68.11000000    98.41000000    -1.64000000
   O     67.47000000    97.68000000    -0.89000000
   C     66.83000000    97.32000000    -3.59000000
   C     66.32000000    97.56000000    -5.00000000
   N     66.47000000    96.55000000    -5.87000000
   O     65.57000000    98.48000000    -5.33000000
   H     68.88000000    99.22000000    -4.71000000
   H     67.05000000    99.22000000    -3.36000000
   H     66.07000000    97.17000000    -2.82000000
   H     67.41000000    96.40000000    -3.63000000
   H     66.80000000    95.63000000    -5.62000000
   H     66.37000000    96.73000000    -6.86000000
   N     69.13000000    99.16000000    -1.22000000
   C     69.62000000    99.27000000     0.14000000
   C     70.58000000    98.17000000     0.58000000
   O     71.23000000    98.38000000     1.60000000
   H     69.51000000    99.83000000    -1.87000000
   H     68.81000000    99.22000000     0.87000000
   H     70.06000000   100.26000000     0.27000000
   N     70.82000000    97.15000000    -0.24000000
   C     72.06000000    96.39000000    -0.20000000
   C     71.74000000    94.97000000     0.26000000
   O     70.90000000    94.32000000    -0.36000000
   C     72.82000000    96.35000000    -1.53000000
   C     73.11000000    97.74000000    -2.09000000
   O     74.13000000    95.92000000    -1.26000000
   H     70.15000000    96.95000000    -0.97000000
   H     72.68000000    96.98000000     0.47000000
   H     72.39000000    95.64000000    -2.23000000
   H     74.56000000    95.71000000    -2.09000000
   H     72.13000000    98.10000000    -2.42000000
   H     73.51000000    98.38000000    -1.31000000
   H     73.82000000    97.60000000    -2.91000000
   N     72.48000000    94.40000000     1.21000000
   C     72.30000000    93.02000000     1.63000000
   C     72.37000000    92.04000000     0.46000000
   O     73.40000000    92.05000000    -0.21000000
   C     73.36000000    92.47000000     2.59000000
   C     74.70000000    93.16000000     2.37000000
   C     72.88000000    92.80000000     4.00000000
   C     75.90000000    92.30000000     2.76000000
   H     73.22000000    95.00000000     1.53000000
   H     71.29000000    92.94000000     2.01000000
   H     73.45000000    91.39000000     2.54000000
   H     74.65000000    94.18000000     2.75000000
   H     74.70000000    93.32000000     1.30000000
   H     73.38000000    92.31000000     4.83000000
   H     73.04000000    93.87000000     4.15000000
   H     71.83000000    92.51000000     4.09000000
   H     75.95000000    91.96000000     3.79000000
   H     76.00000000    91.39000000     2.16000000
   H     76.80000000    92.91000000     2.66000000
   N     71.36000000    91.21000000     0.16000000
   C     71.35000000    90.28000000    -0.95000000
   C     69.91000000    90.12000000    -1.43000000
   O     69.17000000    89.19000000    -1.12000000
   C     71.98000000    88.96000000    -0.53000000
   C     72.04000000    87.97000000    -1.68000000
   O     72.47000000    88.37000000    -2.78000000
   O     71.65000000    86.79000000    -1.50000000
   H     70.51000000    91.22000000     0.70000000
   H     71.92000000    90.69000000    -1.79000000
   H     71.33000000    88.52000000     0.23000000
   H     72.98000000    89.02000000    -0.12000000
   N     69.38000000    91.14000000    -2.10000000
   C     67.99000000    91.29000000    -2.45000000
   C     67.18000000    92.54000000    -2.14000000
   O     66.35000000    93.01000000    -2.91000000
   C     67.83000000    90.81000000    -3.89000000
   C     66.63000000    89.99000000    -4.28000000
   C     65.90000000    90.38000000    -5.41000000
   C     66.38000000    88.76000000    -3.65000000
   C     64.82000000    89.59000000    -5.81000000
   C     65.34000000    87.94000000    -4.09000000
   C     64.56000000    88.37000000    -5.17000000
   H     70.00000000    91.90000000    -2.37000000
   H     67.40000000    90.54000000    -1.93000000
   H     68.64000000    90.13000000    -4.14000000
   H     67.94000000    91.70000000    -4.52000000
   H     66.10000000    91.28000000    -5.96000000
   H     66.92000000    88.48000000    -2.76000000
   H     64.23000000    89.87000000    -6.67000000
   H     65.12000000    86.97000000    -3.65000000
   H     63.72000000    87.77000000    -5.50000000
   N     67.37000000    93.18000000    -0.98000000
   C     68.09000000    92.76000000     0.21000000
   C     67.71000000    91.41000000     0.78000000
   O     68.58000000    90.78000000     1.38000000
   C     67.92000000    93.85000000     1.27000000
   C     67.58000000    95.03000000     0.37000000
   C     66.73000000    94.46000000    -0.76000000
   H     69.14000000    92.57000000     0.01000000
   H     67.07000000    93.56000000     1.89000000
   H     68.81000000    94.02000000     1.88000000
   H     67.07000000    95.89000000     0.80000000
   H     68.50000000    95.46000000    -0.03000000
   H     65.70000000    94.36000000    -0.42000000
   H     66.95000000    95.09000000    -1.63000000
   N     66.43000000    91.01000000     0.71000000
   C     65.86000000    89.87000000     1.39000000
   C     66.35000000    89.54000000     2.79000000
   O     66.81000000    88.44000000     3.08000000
   C     65.93000000    88.71000000     0.40000000
   C     64.99000000    88.83000000    -0.80000000
   C     63.55000000    89.06000000    -0.36000000
   O     62.88000000    89.88000000    -1.03000000
   O     62.92000000    88.53000000     0.58000000
   H     65.81000000    91.59000000     0.16000000
   H     64.82000000    90.17000000     1.50000000
   H     65.62000000    87.81000000     0.94000000
   H     66.91000000    88.64000000    -0.06000000
   H     65.07000000    87.98000000    -1.48000000
   H     65.34000000    89.69000000    -1.38000000
   N     66.31000000    90.53000000     3.69000000
   C     66.92000000    90.37000000     5.00000000
   H     67.81400000    90.99000000     5.06200000
   H     66.21200000    90.67500000     5.77100000
   H     67.19200000    89.32500000     5.14900000
   H     65.89000000    91.40000000     3.42000000
  Ca     76.13000000    90.33000000    -6.64300000
   O     77.24000000    87.83000000    -6.64300000
   H     78.00000000    87.58000000    -7.17300000
   H     77.47000000    87.55000000    -5.75300000
   O     77.94000000    90.28000000    -8.71300000
   H     78.19000000    90.56000000    -9.59300000
   H     78.78000000    90.20000000    -8.24300000
   O     76.29000000    89.96000000    -4.14300000
   H     75.65000000    89.99000000    -3.43300000
   H     77.14000000    89.90000000    -3.70300000
   O     75.29000000    89.12000000    -8.91300000
   H     74.97000000    88.23000000    -9.01300000
   H     75.44000000    89.43000000    -9.80300000
   O     76.69000000    92.58000000    -7.90300000
   H     76.12000000    92.98000000    -8.55300000
   H     77.58000000    92.82000000    -8.18300000
   O     74.10000000    88.76000000    -5.56300000
   H     73.31000000    89.29000000    -5.45300000
   H     73.90000000    87.94000000    -5.11300000

Ca 1.00



