%chk=loop2.apoCaM-CA-Ng.Init295.run9.water2.chk
%nprocshared=20
%mem=10GB
%nosave
#b3lyp/svp scf=(tight,noincore,xqc) Test 
#IOP(5/87=12) Density=Current Pop=(MK,readradii) iop(6/33=2) iop(6/42=6)

loop2.apoCaM-CA-Ng.Init295.run9.water2 

   -2  1 
   C     60.74000000    47.58000000    52.66000000
   C     60.13000000    47.39000000    51.28000000
   O     59.16000000    46.66000000    51.08000000
   H     61.63100000    48.20300000    52.58000000
   H     60.01500000    48.06400000    53.31500000
   H     61.01300000    46.60900000    53.07400000
   N     60.70000000    47.96000000    50.22000000
   C     60.32000000    47.94000000    48.82000000
   C     58.84000000    48.02000000    48.46000000
   O     58.10000000    48.80000000    49.05000000
   C     61.02000000    49.06000000    48.05000000
   C     62.47000000    49.36000000    48.42000000
   O     63.40000000    48.77000000    47.83000000
   O     62.62000000    50.16000000    49.36000000
   H     61.48000000    48.52000000    50.55000000
   H     60.71000000    47.00000000    48.43000000
   H     60.41000000    49.92000000    48.36000000
   H     60.91000000    48.84000000    46.99000000
   N     58.41000000    47.29000000    47.43000000
   C     57.02000000    47.31000000    46.99000000
   C     56.12000000    46.58000000    47.97000000
   O     56.44000000    45.51000000    48.48000000
   C     56.93000000    46.80000000    45.56000000
   H     59.03000000    46.63000000    46.99000000
   H     56.61000000    48.32000000    46.89000000
   H     57.52000000    47.35000000    44.83000000
   H     57.23000000    45.75000000    45.54000000
   H     55.90000000    46.81000000    45.20000000
   N     54.90000000    47.01000000    48.32000000
   C     54.26000000    48.16000000    47.71000000
   C     54.61000000    49.52000000    48.30000000
   O     55.13000000    49.44000000    49.41000000
   C     52.75000000    47.92000000    47.78000000
   C     52.32000000    47.83000000    49.23000000
   O     51.90000000    48.81000000    49.88000000
   O     52.19000000    46.71000000    49.78000000
   H     54.45000000    46.47000000    49.04000000
   H     54.47000000    48.30000000    46.65000000
   H     52.58000000    46.95000000    47.31000000
   H     52.34000000    48.73000000    47.18000000
   N     54.08000000    50.61000000    47.73000000
   C     54.35000000    51.95000000    48.19000000
   C     55.69000000    52.59000000    47.84000000
   O     56.43000000    52.03000000    47.03000000
   H     53.55000000    50.54000000    46.87000000
   H     54.16000000    52.16000000    49.24000000
   H     53.59000000    52.55000000    47.68000000
   N     56.19000000    53.62000000    48.51000000
   C     55.52000000    54.38000000    49.55000000
   C     56.53000000    54.75000000    50.63000000
   O     57.27000000    55.72000000    50.45000000
   C     54.90000000    55.56000000    48.82000000
   C     53.67000000    55.25000000    47.98000000
   N     52.58000000    54.79000000    48.61000000
   O     53.81000000    55.15000000    46.76000000
   H     57.12000000    53.91000000    48.23000000
   H     54.75000000    53.78000000    50.04000000
   H     55.58000000    56.06000000    48.13000000
   H     54.52000000    56.32000000    49.50000000
   H     52.36000000    54.84000000    49.59000000
   H     51.84000000    54.46000000    48.01000000
   N     56.53000000    54.08000000    51.78000000
   C     57.51000000    54.31000000    52.82000000
   C     57.29000000    53.58000000    54.14000000
   O     58.21000000    53.49000000    54.95000000
   H     55.93000000    53.28000000    51.92000000
   H     57.52000000    55.39000000    53.03000000
   H     58.51000000    54.00000000    52.51000000
   N     56.05000000    53.11000000    54.31000000
   C     55.59000000    52.44000000    55.51000000
   C     55.10000000    51.04000000    55.14000000
   O     54.60000000    50.85000000    54.03000000
   C     54.54000000    53.16000000    56.35000000
   C     55.11000000    54.47000000    56.89000000
   O     53.42000000    53.46000000    55.55000000
   H     55.37000000    53.29000000    53.59000000
   H     56.42000000    52.31000000    56.20000000
   H     54.28000000    52.55000000    57.21000000
   H     52.71000000    53.56000000    56.18000000
   H     54.89000000    55.16000000    56.09000000
   H     54.69000000    54.79000000    57.84000000
   H     56.17000000    54.28000000    57.07000000
   N     55.12000000    50.11000000    56.10000000
   C     54.40000000    48.86000000    56.01000000
   C     53.11000000    48.99000000    56.82000000
   O     52.79000000    49.99000000    57.46000000
   C     55.25000000    47.66000000    56.40000000
   C     56.56000000    47.74000000    55.62000000
   C     55.45000000    47.41000000    57.89000000
   C     57.38000000    46.46000000    55.47000000
   H     55.60000000    50.43000000    56.93000000
   H     54.15000000    48.81000000    54.95000000
   H     54.70000000    46.84000000    55.95000000
   H     57.23000000    48.48000000    56.07000000
   H     56.29000000    48.10000000    54.63000000
   H     56.49000000    47.33000000    58.19000000
   H     54.90000000    48.14000000    58.49000000
   H     54.99000000    46.45000000    58.13000000
   H     57.74000000    46.11000000    56.43000000
   H     56.75000000    45.65000000    55.12000000
   H     58.15000000    46.59000000    54.70000000
   N     52.37000000    47.88000000    56.77000000
   C     51.04000000    47.84000000    57.35000000
   C     50.80000000    46.40000000    57.78000000
   O     51.46000000    45.52000000    57.22000000
   C     49.98000000    48.30000000    56.36000000
   C     50.33000000    47.87000000    54.94000000
   O     51.25000000    48.50000000    54.37000000
   O     49.78000000    46.92000000    54.35000000
   H     52.71000000    46.98000000    56.46000000
   H     50.98000000    48.47000000    58.24000000
   H     49.94000000    49.39000000    56.42000000
   H     49.00000000    47.90000000    56.59000000
   N     49.89000000    46.09000000    58.70000000
   C     49.59000000    44.73000000    59.11000000
   C     50.78000000    43.81000000    59.35000000
   O     51.75000000    44.19000000    59.99000000
   C     48.71000000    44.80000000    60.36000000
   C     48.34000000    43.45000000    60.93000000
   C     49.32000000    42.76000000    61.64000000
   C     47.15000000    42.82000000    60.54000000
   C     49.05000000    41.46000000    62.09000000
   C     46.90000000    41.49000000    60.90000000
   C     47.84000000    40.87000000    61.73000000
   H     49.42000000    46.81000000    59.23000000
   H     49.12000000    44.28000000    58.24000000
   H     47.87000000    45.48000000    60.22000000
   H     49.32000000    45.34000000    61.08000000
   H     50.31000000    43.18000000    61.73000000
   H     46.49000000    43.38000000    59.91000000
   H     49.82000000    40.86000000    62.57000000
   H     45.99000000    40.99000000    60.58000000
   H     47.59000000    39.87000000    62.06000000
   N     50.69000000    42.57000000    58.87000000
   C     51.74000000    41.62000000    59.18000000
   C     53.04000000    41.70000000    58.39000000
   O     53.89000000    40.83000000    58.56000000
   C     50.92000000    40.33000000    59.12000000
   C     50.06000000    40.51000000    57.87000000
   C     49.66000000    41.97000000    58.04000000
   H     52.11000000    41.74000000    60.21000000
   H     51.56000000    39.45000000    59.16000000
   H     50.34000000    40.34000000    60.04000000
   H     50.63000000    40.44000000    56.94000000
   H     49.20000000    39.85000000    57.80000000
   H     49.51000000    42.43000000    57.06000000
   H     48.64000000    42.03000000    58.44000000
   N     53.14000000    42.69000000    57.50000000
   C     54.17000000    42.75000000    56.49000000
   C     55.57000000    43.02000000    57.03000000
   O     56.58000000    42.97000000    56.33000000
   C     53.85000000    43.95000000    55.59000000
   C     52.64000000    43.57000000    54.73000000
   C     52.36000000    44.63000000    53.68000000
   O     53.06000000    45.66000000    53.52000000
   O     51.36000000    44.57000000    52.93000000
   H     52.44000000    43.42000000    57.54000000
   H     54.29000000    41.79000000    55.99000000
   H     54.74000000    44.22000000    55.03000000
   H     53.55000000    44.82000000    56.17000000
   H     51.70000000    43.52000000    55.28000000
   H     52.81000000    42.58000000    54.32000000
   N     55.71000000    43.35000000    58.32000000
   C     56.93000000    43.87000000    58.90000000
   H     57.68900000    43.96500000    58.12400000
   H     56.73600000    44.84900000    59.33900000
   H     57.28500000    43.18800000    59.67300000
   H     54.93000000    43.19000000    58.94000000
  Ca     51.25000000    47.09000000    52.13000000
   O     49.64000000    45.26000000    51.05000000
   H     49.84000000    44.62000000    51.73000000
   H     49.20000000    44.76000000    50.37000000
   O     53.61000000    48.37000000    52.17000000
   H     54.40000000    48.37000000    51.62000000
   H     53.93000000    48.64000000    53.03000000

Ca 1.00



