%chk=loop4.apoCaM-CA-Ng.Init31.run3.water6.chk
%nprocshared=20
%mem=10GB
%nosave
#b3lyp/svp scf=(tight,noincore,xqc) Test 
#IOP(5/87=12) Density=Current Pop=(MK,readradii) iop(6/33=2) iop(6/42=6)

loop4.apoCaM-CA-Ng.Init31.run3.water6 

   -3  1 
   C     52.78000000    46.31000000    39.14000000
   C     54.08000000    46.30000000    39.93000000
   O     55.07000000    46.09000000    39.22000000
   H     52.04000000    46.91300000    39.66600000
   H     52.95800000    46.73500000    38.15200000
   H     52.40900000    45.29000000    39.03600000
   N     54.23000000    46.50000000    41.24000000
   C     53.30000000    46.81000000    42.31000000
   C     53.78000000    47.96000000    43.19000000
   O     53.14000000    48.38000000    44.15000000
   C     53.00000000    45.58000000    43.16000000
   C     52.68000000    44.36000000    42.32000000
   O     51.51000000    44.17000000    41.89000000
   O     53.63000000    43.58000000    42.07000000
   H     55.15000000    46.25000000    41.56000000
   H     52.37000000    47.24000000    41.93000000
   H     52.25000000    45.80000000    43.92000000
   H     53.94000000    45.30000000    43.64000000
   N     54.97000000    48.50000000    42.97000000
   C     55.59000000    49.63000000    43.65000000
   C     55.99000000    49.25000000    45.06000000
   O     56.06000000    50.01000000    46.03000000
   C     56.75000000    50.17000000    42.81000000
   C     57.35000000    51.43000000    43.43000000
   C     57.87000000    49.18000000    42.51000000
   C     58.32000000    52.23000000    42.58000000
   H     55.54000000    48.08000000    42.25000000
   H     54.81000000    50.39000000    43.71000000
   H     56.48000000    50.38000000    41.78000000
   H     57.82000000    51.29000000    44.41000000
   H     56.55000000    52.14000000    43.66000000
   H     57.59000000    48.36000000    41.85000000
   H     58.54000000    49.68000000    41.82000000
   H     58.36000000    48.78000000    43.41000000
   H     57.80000000    52.44000000    41.64000000
   H     58.66000000    53.09000000    43.16000000
   H     59.21000000    51.66000000    42.31000000
   N     56.38000000    48.00000000    45.34000000
   C     56.86000000    47.41000000    46.58000000
   C     56.30000000    46.03000000    46.88000000
   O     56.14000000    45.57000000    48.01000000
   C     58.36000000    47.22000000    46.42000000
   C     59.08000000    46.96000000    47.73000000
   O     58.58000000    47.33000000    48.81000000
   O     60.18000000    46.37000000    47.70000000
   H     56.35000000    47.36000000    44.57000000
   H     56.71000000    47.99000000    47.49000000
   H     58.79000000    48.16000000    46.08000000
   H     58.57000000    46.48000000    45.64000000
   N     55.98000000    45.28000000    45.82000000
   C     55.49000000    43.92000000    45.88000000
   C     56.60000000    42.89000000    45.70000000
   O     57.31000000    43.02000000    44.71000000
   H     56.22000000    45.59000000    44.89000000
   H     54.68000000    43.78000000    45.17000000
   H     55.08000000    43.67000000    46.86000000
   N     56.84000000    41.95000000    46.62000000
   C     58.00000000    41.07000000    46.55000000
   C     58.97000000    41.51000000    47.64000000
   O     58.52000000    41.72000000    48.76000000
   C     57.52000000    39.63000000    46.69000000
   C     56.54000000    39.14000000    45.63000000
   O     55.40000000    38.75000000    45.96000000
   O     56.97000000    39.13000000    44.46000000
   H     56.24000000    41.84000000    47.42000000
   H     58.46000000    41.10000000    45.57000000
   H     57.28000000    39.42000000    47.73000000
   H     58.43000000    39.05000000    46.51000000
   N     60.29000000    41.31000000    47.48000000
   C     60.99000000    40.86000000    46.30000000
   C     62.48000000    40.60000000    46.50000000
   O     62.92000000    40.80000000    47.63000000
   H     60.82000000    41.39000000    48.34000000
   H     60.80000000    41.66000000    45.59000000
   H     60.64000000    39.92000000    45.88000000
   N     63.29000000    40.15000000    45.55000000
   C     63.14000000    39.77000000    44.16000000
   C     62.66000000    40.74000000    43.08000000
   O     61.66000000    41.41000000    43.34000000
   C     62.41000000    38.45000000    43.96000000
   C     63.10000000    37.23000000    44.57000000
   C     62.34000000    35.92000000    44.40000000
   N     62.22000000    35.37000000    43.19000000
   O     61.75000000    35.30000000    45.28000000
   H     64.20000000    39.87000000    45.88000000
   H     64.13000000    39.43000000    43.88000000
   H     62.36000000    38.34000000    42.87000000
   H     61.37000000    38.47000000    44.31000000
   H     63.19000000    37.41000000    45.64000000
   H     64.05000000    37.03000000    44.09000000
   H     62.64000000    35.85000000    42.39000000
   H     61.88000000    34.42000000    43.21000000
   N     63.37000000    40.84000000    41.95000000
   C     63.12000000    41.63000000    40.76000000
   C     64.32000000    42.49000000    40.39000000
   O     65.45000000    42.04000000    40.56000000
   C     62.61000000    40.83000000    39.56000000
   C     61.50000000    39.92000000    40.06000000
   C     63.56000000    39.84000000    38.88000000
   H     64.22000000    40.30000000    42.02000000
   H     62.32000000    42.32000000    41.01000000
   H     62.24000000    41.54000000    38.83000000
   H     61.85000000    39.09000000    40.68000000
   H     60.72000000    40.51000000    40.54000000
   H     61.01000000    39.46000000    39.20000000
   H     64.38000000    40.44000000    38.48000000
   H     63.94000000    39.18000000    39.66000000
   H     62.98000000    39.28000000    38.15000000
   N     64.17000000    43.69000000    39.82000000
   C     65.14000000    44.49000000    39.10000000
   C     64.50000000    44.76000000    37.74000000
   O     65.16000000    44.68000000    36.71000000
   C     65.39000000    45.80000000    39.83000000
   C     66.04000000    45.71000000    41.20000000
   N     65.19000000    45.47000000    42.19000000
   O     67.24000000    45.86000000    41.43000000
   H     63.22000000    44.04000000    39.83000000
   H     66.04000000    43.88000000    39.02000000
   H     64.48000000    46.40000000    39.88000000
   H     66.08000000    46.46000000    39.30000000
   H     64.22000000    45.28000000    41.95000000
   H     65.61000000    45.35000000    43.10000000
   N     63.23000000    45.17000000    37.70000000
   C     62.36000000    45.32000000    36.55000000
   C     62.04000000    44.00000000    35.85000000
   O     62.68000000    42.99000000    36.11000000
   C     62.80000000    46.52000000    35.72000000
   C     62.76000000    46.34000000    34.22000000
   C     63.70000000    45.50000000    33.61000000
   C     61.95000000    47.21000000    33.47000000
   C     63.68000000    45.42000000    32.21000000
   C     61.93000000    47.16000000    32.07000000
   C     62.82000000    46.24000000    31.46000000
   O     62.93000000    46.20000000    30.11000000
   H     62.79000000    45.38000000    38.58000000
   H     61.37000000    45.57000000    36.95000000
   H     63.82000000    46.82000000    35.97000000
   H     62.13000000    47.31000000    36.03000000
   H     64.33000000    44.85000000    34.19000000
   H     61.31000000    47.88000000    34.03000000
   H     64.37000000    44.73000000    31.74000000
   H     61.34000000    47.93000000    31.59000000
   H     62.20000000    46.69000000    29.73000000
   N     60.91000000    43.96000000    35.14000000
   C     60.40000000    42.81000000    34.44000000
   C     58.88000000    42.90000000    34.44000000
   O     58.32000000    43.16000000    33.37000000
   C     61.00000000    42.68000000    33.04000000
   C     60.85000000    41.34000000    32.33000000
   C     61.31000000    40.26000000    33.29000000
   O     62.52000000    39.96000000    33.39000000
   O     60.50000000    39.63000000    34.01000000
   H     60.45000000    44.84000000    34.98000000
   H     60.62000000    41.95000000    35.07000000
   H     62.07000000    42.89000000    33.08000000
   H     60.63000000    43.50000000    32.43000000
   H     61.48000000    41.36000000    31.45000000
   H     59.80000000    41.17000000    32.09000000
   N     58.34000000    42.73000000    35.65000000
   C     56.98000000    43.09000000    35.99000000
   C     56.87000000    44.58000000    36.25000000
   O     56.09000000    45.29000000    35.62000000
   C     56.53000000    42.30000000    37.22000000
   C     55.16000000    42.70000000    37.75000000
   C     54.73000000    41.94000000    39.00000000
   O     55.47000000    41.78000000    40.00000000
   O     53.57000000    41.48000000    39.09000000
   H     58.96000000    42.38000000    36.36000000
   H     56.23000000    42.95000000    35.21000000
   H     57.29000000    42.45000000    37.98000000
   H     56.58000000    41.22000000    37.05000000
   H     54.47000000    42.41000000    36.95000000
   H     55.13000000    43.78000000    37.90000000
   N     57.77000000    45.06000000    37.11000000
   C     57.92000000    46.50000000    37.26000000
   H     58.81500000    46.82900000    36.73100000
   H     57.04700000    47.00200000    36.84300000
   H     58.01200000    46.74800000    38.31700000
   H     58.50000000    44.41000000    37.37000000
  Ca     53.61000000    40.93000000    41.58000000
   O     54.51000000    38.48000000    40.19000000
   H     54.51000000    38.51000000    39.24000000
   H     55.29000000    37.99000000    40.42000000
   O     51.46000000    39.25000000    41.75000000
   H     51.16000000    39.26000000    40.84000000
   H     51.54000000    38.32000000    41.96000000
   O     53.90000000    39.11000000    43.64000000
   H     53.07000000    38.84000000    44.02000000
   H     54.51000000    39.11000000    44.38000000
   O     51.18000000    41.92000000    40.88000000
   H     50.30000000    41.77000000    40.53000000
   H     51.18000000    42.83000000    41.16000000
   O     52.42000000    41.72000000    43.94000000
   H     52.87000000    41.40000000    44.71000000
   H     51.75000000    42.32000000    44.28000000
   O     55.88000000    41.27000000    43.04000000
   H     56.35000000    42.08000000    43.20000000
   H     56.28000000    40.63000000    43.63000000

Ca 1.00



