%chk=loop4.holoCaM-CaMKII.run67.water2.chk
%nprocshared=20
%mem=10GB
%nosave
#b3lyp/svp scf=(tight,noincore,xqc) Test 
#IOP(5/87=12) Density=Current Pop=(MK,readradii) iop(6/33=2) iop(6/42=6)

loop4.holoCaM-CaMKII.run67.water2 

   -3  1 
   C     42.32000000    39.96000000   101.33200000
   C     42.58000000    38.51000000   101.73200000
   O     42.32000000    38.20000000   102.89200000
   H     41.42600000    40.32200000   101.84000000
   H     43.17300000    40.57500000   101.61800000
   H     42.17400000    40.01900000   100.25300000
   N     43.05000000    37.60000000   100.87200000
   C     43.09000000    36.19000000   101.22200000
   C     44.32000000    35.81000000   102.03200000
   O     45.45000000    36.14000000   101.70200000
   C     43.27000000    35.34000000    99.96200000
   C     43.45000000    33.83000000   100.08200000
   O     43.91000000    33.28000000    99.06200000
   O     43.19000000    33.23000000   101.14200000
   H     43.15000000    37.87000000    99.91200000
   H     42.14000000    35.95000000   101.70200000
   H     44.16000000    35.69000000    99.44200000
   H     42.42000000    35.67000000    99.36200000
   N     44.04000000    35.13000000   103.15200000
   C     45.10000000    34.79000000   104.08200000
   C     45.47000000    33.32000000   104.01200000
   O     46.39000000    32.89000000   104.70200000
   C     44.74000000    35.28000000   105.48200000
   C     43.32000000    34.97000000   105.96200000
   C     45.09000000    36.76000000   105.57200000
   C     42.94000000    35.23000000   107.42200000
   H     43.13000000    34.71000000   103.23200000
   H     46.00000000    35.30000000   103.77200000
   H     45.43000000    34.79000000   106.17200000
   H     43.10000000    33.94000000   105.69200000
   H     42.65000000    35.52000000   105.29200000
   H     44.57000000    37.29000000   104.77200000
   H     44.79000000    37.15000000   106.54200000
   H     46.16000000    36.94000000   105.46200000
   H     43.30000000    34.46000000   108.11200000
   H     43.34000000    36.19000000   107.73200000
   H     41.86000000    35.08000000   107.42200000
   N     44.87000000    32.47000000   103.16200000
   C     45.21000000    31.06000000   103.23200000
   C     45.59000000    30.40000000   101.91200000
   O     45.89000000    29.21000000   101.82200000
   C     44.15000000    30.27000000   103.99200000
   C     42.71000000    30.56000000   103.62200000
   O     42.36000000    30.58000000   102.42200000
   O     41.79000000    30.79000000   104.43200000
   H     44.20000000    32.84000000   102.51200000
   H     46.14000000    30.86000000   103.76200000
   H     44.26000000    30.59000000   105.02200000
   H     44.37000000    29.21000000   104.13200000
   N     45.51000000    31.14000000   100.81200000
   C     46.08000000    30.79000000    99.52200000
   C     45.13000000    30.28000000    98.45200000
   O     45.55000000    30.00000000    97.33200000
   H     45.04000000    32.04000000   100.84200000
   H     46.89000000    30.06000000    99.54200000
   H     46.43000000    31.74000000    99.11200000
   N     43.83000000    30.19000000    98.72200000
   C     42.87000000    29.57000000    97.82200000
   C     42.39000000    30.48000000    96.69200000
   O     41.84000000    29.97000000    95.72200000
   C     41.70000000    29.01000000    98.62200000
   C     40.76000000    30.02000000    99.27200000
   O     41.03000000    31.23000000    99.42200000
   O     39.72000000    29.62000000    99.83200000
   H     43.44000000    30.70000000    99.49200000
   H     43.36000000    28.74000000    97.30200000
   H     42.10000000    28.26000000    99.30200000
   H     41.20000000    28.50000000    97.80200000
   N     42.45000000    31.81000000    96.78200000
   C     41.91000000    32.76000000    95.82200000
   C     40.46000000    33.13000000    96.04200000
   O     39.90000000    33.72000000    95.11200000
   H     42.81000000    32.21000000    97.63200000
   H     41.99000000    32.33000000    94.82200000
   H     42.48000000    33.69000000    95.87200000
   N     39.92000000    32.85000000    97.23200000
   C     38.57000000    33.16000000    97.65200000
   C     38.77000000    33.94000000    98.94200000
   O     39.72000000    33.83000000    99.72200000
   C     37.69000000    31.92000000    97.85200000
   C     37.61000000    31.20000000    96.51200000
   C     36.55000000    30.11000000    96.41200000
   N     36.41000000    29.62000000    95.18200000
   O     35.88000000    29.65000000    97.33200000
   H     40.55000000    32.48000000    97.92200000
   H     38.11000000    33.88000000    96.98200000
   H     36.70000000    32.27000000    98.12200000
   H     38.17000000    31.31000000    98.62200000
   H     38.55000000    30.65000000    96.35200000
   H     37.53000000    31.87000000    95.66200000
   H     37.04000000    29.92000000    94.45200000
   H     35.83000000    28.80000000    95.04200000
   N     37.70000000    34.66000000    99.30200000
   C     37.46000000    35.47000000   100.48200000
   C     36.14000000    35.02000000   101.10200000
   O     35.08000000    35.07000000   100.49200000
   C     37.53000000    36.97000000   100.23200000
   C     36.91000000    37.79000000   101.36200000
   C     39.01000000    37.26000000    99.99200000
   H     36.99000000    34.73000000    98.59200000
   H     38.31000000    35.28000000   101.13200000
   H     37.05000000    37.15000000    99.27200000
   H     35.85000000    37.98000000   101.23200000
   H     37.10000000    37.29000000   102.31200000
   H     37.31000000    38.81000000   101.30200000
   H     39.62000000    37.26000000   100.90200000
   H     39.37000000    36.61000000    99.19200000
   H     39.20000000    38.30000000    99.73200000
   N     36.34000000    34.50000000   102.32200000
   C     35.25000000    34.18000000   103.21200000
   C     34.83000000    35.32000000   104.12200000
   O     35.39000000    36.41000000   104.13200000
   C     35.68000000    32.91000000   103.94200000
   C     36.19000000    33.14000000   105.36200000
   N     37.44000000    33.61000000   105.47200000
   O     35.55000000    32.98000000   106.40200000
   H     37.26000000    34.50000000   102.73200000
   H     34.32000000    33.87000000   102.72200000
   H     36.51000000    32.49000000   103.38200000
   H     34.93000000    32.12000000   103.95200000
   H     37.96000000    33.68000000   104.61200000
   H     37.76000000    33.68000000   106.43200000
   N     33.73000000    35.13000000   104.86200000
   C     33.21000000    36.11000000   105.79200000
   C     34.27000000    36.61000000   106.76200000
   O     34.42000000    37.82000000   106.90200000
   C     32.01000000    35.49000000   106.49200000
   C     31.28000000    36.52000000   107.32200000
   C     30.57000000    37.56000000   106.70200000
   C     31.57000000    36.69000000   108.67200000
   C     29.85000000    38.49000000   107.45200000
   C     30.90000000    37.63000000   109.46200000
   C     30.05000000    38.56000000   108.84200000
   O     29.33000000    39.46000000   109.58200000
   H     33.33000000    34.21000000   104.81200000
   H     32.83000000    37.00000000   105.28200000
   H     32.44000000    34.69000000   107.10200000
   H     31.31000000    35.11000000   105.74200000
   H     30.47000000    37.66000000   105.62200000
   H     32.25000000    35.99000000   109.15200000
   H     29.28000000    39.25000000   106.93200000
   H     31.00000000    37.63000000   110.54200000
   H     29.56000000    39.41000000   110.51200000
   N     34.99000000    35.68000000   107.38200000
   C     36.01000000    36.04000000   108.35200000
   C     37.12000000    36.85000000   107.70200000
   O     37.74000000    37.65000000   108.40200000
   C     36.63000000    34.82000000   109.02200000
   C     35.52000000    34.08000000   109.76200000
   C     36.00000000    32.75000000   110.33200000
   O     36.52000000    32.64000000   111.46200000
   O     35.95000000    31.77000000   109.55200000
   H     34.82000000    34.68000000   107.30200000
   H     35.52000000    36.63000000   109.13200000
   H     37.41000000    35.00000000   109.76200000
   H     37.04000000    34.20000000   108.22200000
   H     34.58000000    33.88000000   109.25200000
   H     35.29000000    34.75000000   110.58200000
   N     37.43000000    36.70000000   106.41200000
   C     38.32000000    37.56000000   105.65200000
   C     37.73000000    38.89000000   105.22200000
   O     38.45000000    39.88000000   105.08200000
   C     38.71000000    36.79000000   104.39200000
   C     39.86000000    35.84000000   104.70200000
   C     39.99000000    34.78000000   103.61200000
   O     41.10000000    34.50000000   103.12200000
   O     38.99000000    34.09000000   103.31200000
   H     36.93000000    36.01000000   105.87200000
   H     39.23000000    37.70000000   106.25200000
   H     39.17000000    37.45000000   103.66200000
   H     37.88000000    36.20000000   104.00200000
   H     39.79000000    35.40000000   105.69200000
   H     40.75000000    36.47000000   104.72200000
   N     36.41000000    38.96000000   105.02200000
   C     35.66000000    40.13000000   104.62200000
   H     34.72800000    40.17400000   105.18600000
   H     36.24800000    41.02600000   104.82300000
   H     35.43700000    40.07300000   103.55700000
   H     35.90000000    38.11000000   105.17200000
  Ca     40.73000000    32.42000000   101.66200000
   O     39.36000000    31.21000000   103.70200000
   H     38.72000000    31.00000000   104.38200000
   H     40.20000000    30.91000000   104.05200000
   O     38.23000000    31.34000000   101.18200000
   H     38.16000000    31.05000000   102.09200000
   H     38.50000000    30.57000000   100.70200000

Ca 1.00



