%chk=loop1.apoCaM-CA-Ng.Init31.run90.water4.chk
%nprocshared=20
%mem=10GB
%nosave
#b3lyp/svp scf=(tight,noincore,xqc) Test 
#IOP(5/87=12) Density=Current Pop=(MK,readradii) iop(6/33=2) iop(6/42=6)

loop1.apoCaM-CA-Ng.Init31.run90.water4 

   0  1 
   C     40.73000000    42.85000000    52.96000000
   C     40.05000000    42.87000000    51.60000000
   O     39.18000000    43.72000000    51.40000000
   H     41.62600000    43.47000000    52.92700000
   H     40.04700000    43.24000000    53.71400000
   H     41.00700000    41.82700000    53.21400000
   N     40.34000000    41.93000000    50.70000000
   C     39.64000000    41.70000000    49.45000000
   C     39.28000000    40.23000000    49.39000000
   O     39.93000000    39.41000000    50.04000000
   C     40.49000000    42.28000000    48.32000000
   C     39.74000000    42.51000000    47.02000000
   O     38.58000000    42.09000000    46.82000000
   O     40.30000000    43.05000000    46.04000000
   H     40.97000000    41.21000000    51.04000000
   H     38.67000000    42.20000000    49.50000000
   H     41.36000000    41.63000000    48.20000000
   H     40.90000000    43.26000000    48.56000000
   N     38.22000000    39.86000000    48.67000000
   C     37.84000000    38.48000000    48.44000000
   C     38.94000000    37.47000000    48.18000000
   O     38.94000000    36.39000000    48.77000000
   C     36.89000000    38.51000000    47.24000000
   C     36.35000000    37.27000000    46.53000000
   C     35.70000000    37.57000000    45.18000000
   C     34.88000000    36.42000000    44.58000000
   N     34.20000000    36.74000000    43.32000000
   H     37.70000000    40.46000000    48.04000000
   H     37.23000000    38.15000000    49.28000000
   H     37.26000000    39.23000000    46.52000000
   H     35.96000000    38.96000000    47.59000000
   H     35.63000000    36.86000000    47.23000000
   H     37.18000000    36.57000000    46.46000000
   H     36.47000000    37.89000000    44.48000000
   H     35.07000000    38.45000000    45.15000000
   H     34.06000000    36.18000000    45.26000000
   H     35.50000000    35.53000000    44.47000000
   H     33.83000000    35.89000000    42.91000000
   H     33.40000000    37.33000000    43.50000000
   H     34.76000000    37.25000000    42.65000000
   N     40.02000000    37.65000000    47.41000000
   C     40.18000000    38.69000000    46.42000000
   C     41.61000000    39.21000000    46.32000000
   O     42.54000000    38.51000000    46.71000000
   C     39.81000000    38.19000000    45.03000000
   C     39.23000000    39.24000000    44.09000000
   O     39.51000000    40.43000000    44.36000000
   O     38.47000000    38.93000000    43.15000000
   H     40.73000000    36.93000000    47.42000000
   H     39.49000000    39.51000000    46.63000000
   H     39.09000000    37.38000000    45.14000000
   H     40.72000000    37.86000000    44.54000000
   N     41.86000000    40.39000000    45.75000000
   C     43.14000000    40.93000000    45.33000000
   C     43.23000000    42.45000000    45.18000000
   O     43.68000000    43.12000000    46.09000000
   H     41.02000000    40.76000000    45.31000000
   H     43.37000000    40.46000000    44.37000000
   H     43.90000000    40.66000000    46.06000000
   N     42.82000000    43.01000000    44.04000000
   C     42.85000000    44.43000000    43.72000000
   C     44.23000000    44.94000000    43.33000000
   O     45.12000000    44.14000000    43.04000000
   C     41.85000000    44.63000000    42.58000000
   C     40.48000000    44.02000000    42.81000000
   O     39.79000000    44.73000000    43.58000000
   O     40.05000000    43.04000000    42.15000000
   H     42.73000000    42.39000000    43.25000000
   H     42.62000000    44.93000000    44.65000000
   H     42.24000000    44.09000000    41.72000000
   H     41.82000000    45.69000000    42.32000000
   N     44.56000000    46.22000000    43.45000000
   C     43.81000000    47.36000000    43.94000000
   C     43.47000000    48.35000000    42.83000000
   O     43.02000000    49.45000000    43.17000000
   H     45.54000000    46.42000000    43.27000000
   H     44.38000000    47.96000000    44.64000000
   H     42.91000000    47.03000000    44.46000000
   N     43.70000000    48.04000000    41.56000000
   C     43.45000000    48.91000000    40.42000000
   C     44.35000000    50.13000000    40.37000000
   O     43.87000000    51.26000000    40.44000000
   C     41.96000000    49.23000000    40.33000000
   C     41.03000000    48.09000000    40.72000000
   O     41.62000000    49.60000000    39.01000000
   H     44.02000000    47.12000000    41.29000000
   H     43.68000000    48.32000000    39.53000000
   H     41.74000000    50.01000000    41.06000000
   H     41.37000000    50.52000000    39.12000000
   H     41.19000000    47.16000000    40.17000000
   H     41.00000000    47.84000000    41.78000000
   H     39.97000000    48.31000000    40.60000000
   N     45.65000000    49.85000000    40.46000000
   C     46.79000000    50.75000000    40.46000000
   C     46.85000000    51.53000000    39.16000000
   O     47.90000000    51.38000000    38.52000000
   C     46.78000000    51.62000000    41.71000000
   C     46.31000000    50.95000000    42.99000000
   C     48.05000000    52.44000000    41.94000000
   C     47.15000000    49.79000000    43.53000000
   H     45.84000000    48.87000000    40.61000000
   H     47.78000000    50.29000000    40.48000000
   H     46.02000000    52.38000000    41.56000000
   H     45.29000000    50.55000000    42.95000000
   H     46.13000000    51.76000000    43.70000000
   H     47.89000000    53.18000000    42.73000000
   H     48.89000000    51.82000000    42.27000000
   H     48.36000000    53.00000000    41.06000000
   H     48.18000000    50.15000000    43.54000000
   H     46.92000000    49.50000000    44.55000000
   H     47.12000000    48.91000000    42.90000000
   N     45.88000000    52.39000000    38.83000000
   C     45.68000000    52.88000000    37.48000000
   C     45.17000000    54.32000000    37.55000000
   O     44.51000000    54.73000000    38.51000000
   C     44.73000000    52.05000000    36.63000000
   C     43.26000000    52.09000000    37.04000000
   O     45.17000000    50.71000000    36.62000000
   H     45.11000000    52.55000000    39.47000000
   H     46.65000000    52.83000000    37.00000000
   H     44.84000000    52.46000000    35.63000000
   H     46.10000000    50.67000000    36.38000000
   H     43.19000000    51.68000000    38.05000000
   H     42.84000000    53.10000000    37.09000000
   H     42.65000000    51.52000000    36.34000000
   N     45.19000000    55.04000000    36.43000000
   C     44.59000000    56.36000000    36.42000000
   C     43.07000000    56.25000000    36.39000000
   O     42.45000000    55.30000000    35.92000000
   C     45.04000000    57.06000000    35.14000000
   C     46.50000000    57.43000000    35.32000000
   O     44.65000000    56.23000000    34.06000000
   H     45.52000000    54.67000000    35.55000000
   H     45.09000000    56.84000000    37.26000000
   H     44.48000000    57.99000000    35.12000000
   H     45.41000000    55.69000000    33.85000000
   H     46.64000000    58.33000000    35.92000000
   H     47.20000000    56.63000000    35.58000000
   H     46.94000000    57.77000000    34.38000000
   N     42.46000000    57.27000000    37.01000000
   C     41.03000000    57.37000000    37.16000000
   C     40.27000000    56.08000000    37.43000000
   O     39.46000000    55.68000000    36.60000000
   C     40.53000000    58.09000000    35.91000000
   C     41.16000000    59.46000000    35.71000000
   C     40.67000000    59.98000000    34.36000000
   C     41.26000000    61.38000000    34.18000000
   N     40.96000000    61.95000000    32.86000000
   H     43.06000000    57.99000000    37.38000000
   H     40.84000000    58.04000000    38.00000000
   H     39.44000000    58.15000000    35.98000000
   H     40.81000000    57.44000000    35.09000000
   H     42.25000000    59.47000000    35.64000000
   H     40.68000000    60.08000000    36.46000000
   H     39.59000000    60.12000000    34.33000000
   H     41.05000000    59.40000000    33.52000000
   H     42.34000000    61.34000000    34.30000000
   H     40.88000000    62.02000000    34.98000000
   H     39.97000000    62.06000000    32.68000000
   H     41.52000000    62.79000000    32.85000000
   H     41.24000000    61.22000000    32.23000000
   N     40.59000000    55.48000000    38.58000000
   C     40.03000000    54.20000000    38.98000000
   C     40.99000000    53.27000000    39.73000000
   O     40.88000000    52.07000000    39.50000000
   C     38.68000000    54.19000000    39.70000000
   C     37.75000000    55.32000000    39.29000000
   C     36.44000000    55.31000000    40.06000000
   O     36.25000000    54.65000000    41.10000000
   O     35.51000000    56.03000000    39.63000000
   H     41.44000000    55.76000000    39.05000000
   H     39.94000000    53.60000000    38.08000000
   H     38.84000000    54.20000000    40.77000000
   H     38.24000000    53.20000000    39.55000000
   H     37.52000000    55.09000000    38.25000000
   H     38.16000000    56.32000000    39.44000000
   N     42.06000000    53.70000000    40.39000000
   C     42.36000000    54.98000000    41.00000000
   H     43.24500000    55.40700000    40.52900000
   H     41.51500000    55.65500000    40.86400000
   H     42.54700000    54.84100000    42.06500000
   H     42.57000000    52.90000000    40.74000000
  Ca     38.32000000    42.70000000    44.23000000
   O     35.68000000    41.85000000    44.86000000
   H     35.20000000    41.35000000    44.21000000
   H     35.02000000    42.42000000    45.27000000
   O     37.39000000    41.11000000    42.15000000
   H     36.53000000    40.94000000    41.77000000
   H     37.75000000    40.23000000    42.33000000
   O     36.87000000    44.04000000    42.48000000
   H     37.10000000    44.80000000    41.94000000
   H     35.92000000    43.96000000    42.38000000
   O     37.14000000    44.54000000    45.61000000
   H     36.34000000    45.07000000    45.57000000
   H     37.82000000    45.15000000    45.90000000

Ca 1.00



