%chk=loop4.holoCaM.run15.water2.chk
%nprocshared=20
%mem=10GB
%nosave
#b3lyp/svp scf=(tight,noincore,xqc) Test 
#IOP(5/87=12) Density=Current Pop=(MK,readradii) iop(6/33=2) iop(6/42=6)

loop4.holoCaM.run15.water2 

   -3  1 
   C     52.01000000    34.41000000    34.28000000
   C     53.31000000    33.64000000    34.49000000
   O     53.64000000    32.87000000    33.60000000
   H     51.24400000    34.01800000    34.94900000
   H     52.17400000    35.46600000    34.49600000
   H     51.68200000    34.29600000    33.24700000
   N     53.83000000    33.63000000    35.72000000
   C     54.89000000    32.71000000    36.07000000
   C     54.60000000    31.24000000    35.80000000
   O     53.52000000    30.77000000    36.16000000
   C     55.33000000    32.85000000    37.52000000
   C     56.30000000    31.86000000    38.15000000
   O     57.30000000    31.44000000    37.53000000
   O     56.08000000    31.55000000    39.34000000
   H     53.39000000    34.09000000    36.50000000
   H     55.78000000    33.03000000    35.52000000
   H     54.44000000    32.84000000    38.14000000
   H     55.73000000    33.86000000    37.63000000
   N     55.49000000    30.45000000    35.19000000
   C     55.31000000    29.10000000    34.69000000
   C     56.21000000    28.10000000    35.40000000
   O     55.77000000    26.97000000    35.60000000
   C     55.46000000    29.12000000    33.17000000
   C     54.61000000    28.09000000    32.43000000
   C     56.93000000    28.94000000    32.81000000
   C     54.86000000    27.96000000    30.93000000
   H     56.35000000    30.93000000    35.01000000
   H     54.27000000    28.82000000    34.90000000
   H     55.24000000    30.11000000    32.77000000
   H     53.63000000    28.52000000    32.63000000
   H     54.81000000    27.13000000    32.90000000
   H     57.01000000    29.30000000    31.78000000
   H     57.68000000    29.52000000    33.35000000
   H     57.21000000    27.89000000    32.82000000
   H     55.79000000    27.40000000    30.82000000
   H     54.06000000    27.44000000    30.41000000
   H     55.18000000    28.89000000    30.45000000
   N     57.43000000    28.48000000    35.79000000
   C     58.36000000    27.71000000    36.59000000
   C     58.17000000    27.70000000    38.10000000
   O     58.40000000    26.71000000    38.78000000
   C     59.82000000    27.91000000    36.19000000
   C     60.21000000    29.35000000    35.86000000
   O     60.53000000    29.61000000    34.68000000
   O     60.17000000    30.22000000    36.75000000
   H     57.76000000    29.42000000    35.62000000
   H     58.16000000    26.67000000    36.37000000
   H     59.88000000    27.37000000    35.25000000
   H     60.45000000    27.51000000    36.98000000
   N     57.54000000    28.74000000    38.67000000
   C     57.08000000    28.79000000    40.04000000
   C     57.93000000    29.68000000    40.95000000
   O     57.60000000    29.72000000    42.13000000
   H     57.39000000    29.55000000    38.09000000
   H     56.98000000    27.77000000    40.41000000
   H     56.09000000    29.23000000    40.06000000
   N     58.97000000    30.36000000    40.48000000
   C     59.85000000    31.12000000    41.35000000
   C     59.29000000    32.45000000    41.83000000
   O     59.98000000    32.98000000    42.70000000
   C     61.24000000    31.36000000    40.75000000
   C     61.29000000    32.20000000    39.49000000
   O     62.40000000    32.66000000    39.14000000
   O     60.24000000    32.42000000    38.85000000
   H     59.03000000    30.52000000    39.48000000
   H     60.10000000    30.49000000    42.20000000
   H     61.80000000    30.44000000    40.54000000
   H     61.76000000    31.87000000    41.55000000
   N     58.02000000    32.73000000    41.54000000
   C     57.31000000    33.88000000    42.07000000
   C     57.68000000    35.24000000    41.51000000
   O     57.33000000    36.25000000    42.12000000
   H     57.45000000    32.04000000    41.07000000
   H     57.36000000    33.89000000    43.16000000
   H     56.25000000    33.75000000    41.89000000
   N     58.33000000    35.29000000    40.34000000
   C     58.75000000    36.43000000    39.57000000
   C     58.67000000    36.15000000    38.07000000
   O     58.66000000    34.98000000    37.70000000
   C     60.15000000    36.90000000    39.96000000
   C     61.18000000    35.77000000    39.88000000
   C     62.60000000    36.18000000    40.24000000
   N     63.52000000    35.22000000    40.14000000
   O     62.90000000    37.30000000    40.64000000
   H     58.23000000    34.41000000    39.85000000
   H     58.16000000    37.29000000    39.91000000
   H     60.07000000    37.26000000    40.98000000
   H     60.38000000    37.65000000    39.20000000
   H     61.20000000    35.46000000    38.84000000
   H     60.96000000    34.88000000    40.47000000
   H     63.24000000    34.34000000    39.73000000
   H     64.46000000    35.49000000    40.40000000
   N     58.73000000    37.09000000    37.12000000
   C     58.75000000    36.89000000    35.69000000
   C     60.00000000    37.23000000    34.89000000
   O     60.47000000    38.35000000    35.06000000
   C     57.44000000    37.36000000    35.06000000
   C     56.31000000    36.57000000    35.71000000
   C     57.15000000    38.86000000    34.98000000
   H     58.82000000    38.04000000    37.44000000
   H     58.61000000    35.83000000    35.47000000
   H     57.38000000    37.20000000    33.98000000
   H     56.02000000    36.85000000    36.72000000
   H     55.41000000    36.58000000    35.10000000
   H     56.58000000    35.52000000    35.79000000
   H     57.98000000    39.39000000    34.51000000
   H     56.20000000    38.98000000    34.46000000
   H     57.06000000    39.30000000    35.97000000
   N     60.35000000    36.40000000    33.90000000
   C     61.15000000    36.72000000    32.74000000
   C     60.27000000    37.24000000    31.61000000
   O     59.06000000    37.09000000    31.70000000
   C     61.83000000    35.39000000    32.44000000
   C     61.28000000    34.67000000    31.22000000
   N     60.39000000    33.70000000    31.46000000
   O     61.56000000    35.05000000    30.09000000
   H     59.74000000    35.61000000    33.74000000
   H     61.92000000    37.46000000    32.98000000
   H     61.94000000    34.75000000    33.32000000
   H     62.85000000    35.68000000    32.17000000
   H     60.08000000    33.73000000    32.42000000
   H     59.93000000    33.13000000    30.76000000
   N     60.88000000    37.91000000    30.62000000
   C     60.24000000    38.53000000    29.48000000
   C     59.17000000    37.63000000    28.89000000
   O     58.02000000    37.98000000    28.64000000
   C     61.23000000    39.10000000    28.46000000
   C     60.59000000    40.09000000    27.51000000
   C     60.22000000    41.38000000    27.90000000
   C     60.39000000    39.71000000    26.18000000
   C     59.62000000    42.24000000    26.97000000
   C     59.70000000    40.51000000    25.26000000
   C     59.23000000    41.75000000    25.72000000
   O     58.52000000    42.42000000    24.76000000
   H     61.88000000    37.88000000    30.57000000
   H     59.75000000    39.44000000    29.84000000
   H     61.74000000    38.31000000    27.91000000
   H     61.85000000    39.68000000    29.14000000
   H     60.50000000    41.76000000    28.87000000
   H     60.68000000    38.73000000    25.81000000
   H     59.52000000    43.31000000    27.13000000
   H     59.54000000    40.17000000    24.24000000
   H     58.49000000    41.90000000    23.95000000
   N     59.50000000    36.37000000    28.59000000
   C     58.64000000    35.39000000    27.96000000
   C     57.51000000    34.91000000    28.85000000
   O     56.54000000    34.34000000    28.36000000
   C     59.53000000    34.32000000    27.34000000
   C     60.43000000    34.87000000    26.24000000
   C     61.48000000    33.86000000    25.79000000
   O     61.22000000    33.31000000    24.70000000
   O     62.35000000    33.40000000    26.56000000
   H     60.43000000    36.01000000    28.69000000
   H     58.17000000    35.89000000    27.11000000
   H     58.84000000    33.57000000    26.95000000
   H     60.18000000    33.94000000    28.13000000
   H     60.91000000    35.80000000    26.53000000
   H     59.90000000    35.12000000    25.32000000
   N     57.47000000    35.20000000    30.15000000
   C     56.27000000    35.11000000    30.96000000
   C     55.58000000    36.46000000    31.05000000
   O     54.37000000    36.53000000    30.86000000
   C     56.63000000    34.68000000    32.38000000
   C     57.13000000    33.25000000    32.51000000
   C     57.92000000    33.02000000    33.79000000
   O     58.77000000    33.84000000    34.18000000
   O     57.79000000    31.97000000    34.47000000
   H     58.24000000    35.72000000    30.55000000
   H     55.61000000    34.38000000    30.49000000
   H     55.70000000    34.67000000    32.94000000
   H     57.33000000    35.40000000    32.81000000
   H     57.86000000    33.00000000    31.73000000
   H     56.29000000    32.56000000    32.44000000
   N     56.28000000    37.58000000    31.20000000
   C     55.84000000    38.96000000    31.17000000
   H     54.88300000    39.04700000    31.68500000
   H     56.57900000    39.58800000    31.66800000
   H     55.72600000    39.28300000    30.13500000
   H     57.29000000    37.52000000    31.20000000
  Ca     59.40000000    32.58000000    36.46000000
   O     61.30000000    32.16000000    34.68000000
   H     61.12000000    31.23000000    34.57000000
   H     62.07000000    32.33000000    34.14000000
   O     61.55000000    33.95000000    36.84000000
   H     62.33000000    33.77000000    36.31000000
   H     61.83000000    33.82000000    37.74000000

Ca 1.00



