%chk=loop4.apoCaM-CA-Ng.Init31.run94.water4.chk
%nprocshared=20
%mem=10GB
%nosave
#b3lyp/svp scf=(tight,noincore,xqc) Test 
#IOP(5/87=12) Density=Current Pop=(MK,readradii) iop(6/33=2) iop(6/42=6)

loop4.apoCaM-CA-Ng.Init31.run94.water4 

   -3  1 
   C     58.44000000    44.93000000    48.29000000
   C     58.33000000    45.22000000    46.80000000
   O     57.46000000    45.97000000    46.36000000
   H     58.91600000    45.77400000    48.79000000
   H     57.44400000    44.77800000    48.70600000
   H     59.03900000    44.03200000    48.44300000
   N     59.18000000    44.69000000    45.92000000
   C     60.53000000    44.21000000    46.08000000
   C     61.54000000    45.16000000    46.71000000
   O     62.38000000    44.74000000    47.49000000
   C     61.05000000    43.59000000    44.78000000
   C     62.24000000    42.64000000    44.88000000
   O     63.16000000    42.73000000    44.04000000
   O     62.34000000    41.73000000    45.73000000
   H     58.97000000    44.97000000    44.97000000
   H     60.56000000    43.44000000    46.86000000
   H     61.30000000    44.37000000    44.07000000
   H     60.23000000    43.02000000    44.33000000
   N     61.35000000    46.46000000    46.47000000
   C     62.02000000    47.51000000    47.22000000
   C     62.82000000    48.49000000    46.37000000
   O     63.75000000    49.09000000    46.90000000
   C     60.99000000    48.27000000    48.04000000
   C     61.51000000    49.42000000    48.90000000
   C     59.72000000    48.84000000    47.41000000
   C     62.51000000    48.94000000    49.95000000
   H     60.60000000    46.68000000    45.83000000
   H     62.75000000    47.01000000    47.87000000
   H     60.56000000    47.49000000    48.65000000
   H     60.75000000    50.03000000    49.41000000
   H     61.93000000    50.23000000    48.31000000
   H     59.26000000    47.96000000    46.96000000
   H     58.97000000    49.11000000    48.15000000
   H     59.86000000    49.65000000    46.69000000
   H     62.74000000    49.79000000    50.59000000
   H     62.21000000    48.07000000    50.53000000
   H     63.44000000    48.73000000    49.42000000
   N     62.50000000    48.64000000    45.09000000
   C     63.07000000    49.63000000    44.20000000
   C     63.93000000    48.98000000    43.12000000
   O     64.05000000    47.76000000    43.10000000
   C     61.93000000    50.51000000    43.70000000
   C     62.30000000    51.91000000    43.24000000
   O     61.41000000    52.71000000    42.90000000
   O     63.48000000    52.21000000    42.93000000
   H     61.75000000    48.05000000    44.78000000
   H     63.78000000    50.24000000    44.76000000
   H     61.18000000    50.65000000    44.48000000
   H     61.49000000    50.02000000    42.84000000
   N     64.58000000    49.68000000    42.18000000
   C     65.31000000    49.22000000    41.02000000
   C     64.48000000    48.94000000    39.78000000
   O     63.29000000    49.22000000    39.74000000
   H     64.57000000    50.69000000    42.28000000
   H     65.82000000    48.29000000    41.27000000
   H     66.04000000    50.00000000    40.79000000
   N     65.18000000    48.48000000    38.74000000
   C     64.60000000    48.29000000    37.42000000
   C     64.76000000    49.58000000    36.63000000
   O     65.64000000    50.36000000    36.98000000
   C     65.41000000    47.20000000    36.71000000
   C     66.92000000    47.10000000    36.84000000
   O     67.35000000    46.43000000    37.81000000
   O     67.63000000    47.61000000    35.95000000
   H     66.17000000    48.35000000    38.91000000
   H     63.56000000    48.01000000    37.53000000
   H     65.10000000    47.13000000    35.67000000
   H     65.03000000    46.25000000    37.09000000
   N     63.79000000    49.87000000    35.76000000
   C     62.60000000    49.12000000    35.43000000
   C     61.90000000    49.55000000    34.15000000
   O     61.62000000    50.73000000    33.95000000
   H     63.91000000    50.76000000    35.29000000
   H     61.86000000    49.13000000    36.23000000
   H     62.97000000    48.10000000    35.31000000
   N     61.60000000    48.71000000    33.16000000
   C     61.80000000    47.27000000    33.11000000
   C     61.10000000    46.56000000    34.27000000
   O     60.52000000    47.14000000    35.19000000
   C     63.23000000    46.76000000    33.01000000
   C     64.04000000    47.36000000    31.87000000
   C     63.47000000    47.22000000    30.47000000
   N     63.90000000    48.08000000    29.54000000
   O     62.70000000    46.32000000    30.12000000
   H     61.26000000    49.14000000    32.31000000
   H     61.29000000    46.86000000    32.24000000
   H     63.26000000    45.71000000    32.72000000
   H     63.77000000    46.75000000    33.96000000
   H     64.99000000    46.85000000    31.99000000
   H     64.17000000    48.42000000    32.11000000
   H     64.55000000    48.80000000    29.80000000
   H     63.61000000    47.97000000    28.58000000
   N     61.06000000    45.23000000    34.34000000
   C     60.43000000    44.48000000    35.40000000
   C     59.70000000    43.25000000    34.86000000
   O     60.31000000    42.49000000    34.12000000
   C     61.43000000    44.03000000    36.47000000
   C     61.61000000    45.09000000    37.55000000
   C     62.79000000    43.59000000    35.94000000
   H     61.60000000    44.61000000    33.75000000
   H     59.75000000    45.17000000    35.89000000
   H     60.96000000    43.22000000    37.04000000
   H     62.38000000    45.77000000    37.18000000
   H     60.68000000    45.55000000    37.89000000
   H     61.92000000    44.63000000    38.48000000
   H     63.14000000    42.69000000    36.45000000
   H     62.78000000    43.34000000    34.88000000
   H     63.53000000    44.39000000    36.02000000
   N     58.45000000    42.99000000    35.22000000
   C     57.68000000    41.92000000    34.60000000
   C     58.12000000    40.52000000    34.99000000
   O     57.71000000    39.55000000    34.35000000
   C     56.23000000    42.26000000    34.91000000
   C     55.25000000    41.27000000    34.29000000
   N     54.55000000    40.48000000    35.11000000
   O     55.16000000    41.06000000    33.08000000
   H     57.97000000    43.68000000    35.78000000
   H     57.74000000    42.02000000    33.52000000
   H     55.95000000    43.22000000    34.49000000
   H     56.04000000    42.36000000    35.98000000
   H     54.52000000    40.61000000    36.11000000
   H     54.02000000    39.72000000    34.69000000
   N     59.06000000    40.38000000    35.93000000
   C     59.54000000    39.10000000    36.40000000
   C     59.99000000    39.17000000    37.86000000
   O     60.31000000    40.27000000    38.32000000
   C     60.67000000    38.48000000    35.58000000
   C     60.99000000    37.04000000    35.88000000
   C     60.19000000    36.07000000    35.26000000
   C     62.08000000    36.70000000    36.70000000
   C     60.49000000    34.72000000    35.43000000
   C     62.37000000    35.35000000    36.94000000
   C     61.64000000    34.41000000    36.19000000
   O     61.99000000    33.10000000    36.20000000
   H     59.39000000    41.20000000    36.41000000
   H     58.73000000    38.38000000    36.37000000
   H     61.55000000    39.13000000    35.65000000
   H     60.43000000    38.52000000    34.52000000
   H     59.37000000    36.34000000    34.61000000
   H     62.69000000    37.47000000    37.13000000
   H     59.79000000    33.99000000    35.05000000
   H     63.21000000    35.09000000    37.58000000
   H     61.64000000    32.66000000    35.42000000
   N     59.95000000    38.03000000    38.55000000
   C     60.27000000    38.00000000    39.96000000
   C     59.09000000    38.55000000    40.75000000
   O     57.96000000    38.13000000    40.49000000
   C     60.67000000    36.57000000    40.32000000
   C     60.34000000    36.14000000    41.75000000
   C     60.78000000    34.74000000    42.14000000
   O     60.69000000    33.78000000    41.34000000
   O     61.33000000    34.61000000    43.25000000
   H     59.62000000    37.15000000    38.17000000
   H     61.17000000    38.61000000    40.06000000
   H     61.75000000    36.48000000    40.22000000
   H     60.22000000    35.85000000    39.64000000
   H     59.26000000    36.07000000    41.85000000
   H     60.57000000    36.91000000    42.49000000
   N     59.32000000    39.55000000    41.60000000
   C     58.41000000    40.13000000    42.57000000
   C     57.84000000    41.44000000    42.05000000
   O     58.58000000    42.42000000    42.04000000
   C     59.12000000    40.38000000    43.90000000
   C     59.35000000    39.03000000    44.58000000
   C     60.44000000    39.04000000    45.64000000
   O     61.62000000    38.83000000    45.28000000
   O     60.21000000    39.14000000    46.87000000
   H     60.29000000    39.79000000    41.63000000
   H     57.64000000    39.38000000    42.77000000
   H     58.45000000    41.01000000    44.49000000
   H     60.09000000    40.86000000    43.80000000
   H     59.63000000    38.25000000    43.88000000
   H     58.48000000    38.63000000    45.10000000
   N     56.63000000    41.41000000    41.49000000
   C     56.03000000    42.50000000    40.75000000
   H     55.10800000    42.80900000    41.24300000
   H     56.72200000    43.34100000    40.71600000
   H     55.80600000    42.17100000    39.73500000
   H     56.07000000    40.59000000    41.67000000
  Ca     62.66000000    39.96000000    47.62000000
   O     64.82000000    39.40000000    46.11000000
   H     65.62000000    39.81000000    45.77000000
   H     64.71000000    38.61000000    45.59000000
   O     64.33000000    41.91000000    48.16000000
   H     64.08000000    42.79000000    48.47000000
   H     65.25000000    41.82000000    48.40000000
   O     62.40000000    37.32000000    47.92000000
   H     63.19000000    37.10000000    47.43000000
   H     61.68000000    37.11000000    47.33000000
   O     64.37000000    38.88000000    49.31000000
   H     64.23000000    38.06000000    49.78000000
   H     65.32000000    38.95000000    49.23000000

Ca 1.00



