%chk=loop2.apoCaM-CA-Ng.Init295.run58.water3.chk
%nprocshared=20
%mem=10GB
%nosave
#b3lyp/svp scf=(tight,noincore,xqc) Test 
#IOP(5/87=12) Density=Current Pop=(MK,readradii) iop(6/33=2) iop(6/42=6)

loop2.apoCaM-CA-Ng.Init295.run58.water3 

   -2  1 
   C     83.23000000    83.14000000    39.75000000
   C     84.08000000    82.52000000    40.85000000
   O     84.71000000    83.29000000    41.56000000
   H     82.33300000    83.57800000    40.18800000
   H     83.80200000    83.91600000    39.24200000
   H     82.94500000    82.37000000    39.03300000
   N     84.12000000    81.20000000    41.06000000
   C     85.07000000    80.57000000    41.96000000
   C     84.49000000    80.21000000    43.32000000
   O     84.43000000    79.06000000    43.74000000
   C     85.56000000    79.35000000    41.18000000
   C     86.79000000    78.66000000    41.75000000
   O     87.03000000    77.49000000    41.40000000
   O     87.54000000    79.19000000    42.60000000
   H     83.64000000    80.55000000    40.45000000
   H     85.93000000    81.21000000    42.16000000
   H     85.78000000    79.59000000    40.14000000
   H     84.79000000    78.58000000    41.20000000
   N     84.04000000    81.21000000    44.09000000
   C     83.42000000    81.05000000    45.39000000
   C     81.97000000    81.49000000    45.44000000
   O     81.52000000    82.27000000    44.60000000
   C     84.32000000    81.65000000    46.46000000
   H     84.05000000    82.11000000    43.63000000
   H     83.37000000    80.01000000    45.72000000
   H     83.82000000    81.80000000    47.42000000
   H     85.16000000    80.99000000    46.69000000
   H     84.63000000    82.61000000    46.07000000
   N     81.12000000    81.12000000    46.40000000
   C     81.34000000    80.40000000    47.64000000
   C     81.05000000    78.90000000    47.61000000
   O     80.38000000    78.37000000    46.72000000
   C     80.52000000    81.08000000    48.73000000
   C     80.90000000    82.55000000    48.88000000
   O     82.08000000    82.92000000    48.98000000
   O     79.97000000    83.38000000    48.80000000
   H     80.21000000    81.55000000    46.40000000
   H     82.38000000    80.42000000    47.98000000
   H     80.49000000    80.45000000    49.63000000
   H     79.53000000    81.06000000    48.29000000
   N     81.52000000    78.15000000    48.60000000
   C     81.65000000    76.72000000    48.44000000
   C     82.49000000    76.43000000    47.20000000
   O     83.39000000    77.22000000    46.92000000
   H     81.98000000    78.57000000    49.40000000
   H     80.63000000    76.35000000    48.44000000
   H     82.28000000    76.40000000    49.27000000
   N     82.18000000    75.40000000    46.42000000
   C     81.30000000    74.27000000    46.66000000
   C     79.82000000    74.47000000    46.40000000
   O     79.01000000    73.59000000    46.70000000
   C     81.92000000    73.05000000    46.00000000
   C     81.78000000    71.75000000    46.78000000
   N     80.62000000    71.10000000    46.68000000
   O     82.66000000    71.23000000    47.46000000
   H     82.78000000    75.19000000    45.64000000
   H     81.46000000    74.01000000    47.71000000
   H     83.01000000    73.14000000    45.96000000
   H     81.51000000    72.96000000    45.00000000
   H     79.75000000    71.44000000    46.29000000
   H     80.50000000    70.31000000    47.30000000
   N     79.36000000    75.65000000    45.99000000
   C     77.96000000    75.99000000    45.79000000
   C     77.29000000    76.50000000    47.05000000
   O     76.08000000    76.29000000    47.09000000
   H     79.97000000    76.45000000    45.84000000
   H     77.51000000    75.07000000    45.42000000
   H     77.97000000    76.81000000    45.06000000
   N     77.94000000    77.16000000    48.01000000
   C     77.32000000    77.74000000    49.19000000
   C     76.96000000    79.20000000    48.92000000
   O     77.47000000    80.15000000    49.50000000
   C     78.36000000    77.71000000    50.30000000
   C     77.86000000    77.97000000    51.71000000
   O     78.93000000    76.43000000    50.42000000
   H     78.87000000    77.51000000    47.80000000
   H     76.43000000    77.19000000    49.51000000
   H     79.15000000    78.43000000    50.08000000
   H     79.74000000    76.54000000    50.94000000
   H     77.54000000    79.00000000    51.87000000
   H     77.02000000    77.32000000    51.96000000
   H     78.57000000    77.77000000    52.52000000
   N     76.03000000    79.41000000    47.99000000
   C     75.68000000    80.75000000    47.55000000
   C     74.28000000    81.10000000    48.01000000
   O     73.36000000    80.28000000    48.10000000
   C     75.95000000    80.97000000    46.06000000
   C     77.40000000    80.65000000    45.74000000
   C     75.06000000    80.05000000    45.23000000
   C     77.89000000    81.16000000    44.39000000
   H     75.38000000    78.67000000    47.76000000
   H     76.29000000    81.53000000    48.00000000
   H     75.73000000    82.00000000    45.79000000
   H     77.52000000    79.57000000    45.70000000
   H     77.98000000    81.14000000    46.52000000
   H     75.04000000    80.46000000    44.21000000
   H     75.45000000    79.03000000    45.18000000
   H     74.02000000    80.05000000    45.55000000
   H     77.99000000    82.24000000    44.46000000
   H     78.87000000    80.80000000    44.06000000
   H     77.20000000    80.78000000    43.64000000
   N     74.01000000    82.36000000    48.35000000
   C     72.72000000    82.76000000    48.86000000
   C     71.67000000    83.04000000    47.79000000
   O     71.91000000    82.80000000    46.61000000
   C     72.89000000    83.95000000    49.80000000
   C     74.07000000    84.87000000    49.53000000
   O     75.18000000    84.51000000    49.99000000
   O     73.95000000    85.86000000    48.78000000
   H     74.76000000    83.02000000    48.55000000
   H     72.27000000    81.97000000    49.46000000
   H     73.04000000    83.52000000    50.79000000
   H     71.97000000    84.55000000    49.74000000
   N     70.46000000    83.50000000    48.11000000
   C     69.24000000    83.61000000    47.33000000
   C     69.44000000    84.22000000    45.95000000
   O     69.47000000    83.55000000    44.92000000
   C     68.53000000    82.26000000    47.34000000
   C     67.07000000    82.36000000    46.97000000
   C     66.69000000    82.29000000    45.62000000
   C     66.13000000    82.40000000    48.01000000
   C     65.32000000    82.19000000    45.34000000
   C     64.76000000    82.45000000    47.70000000
   C     64.37000000    82.21000000    46.38000000
   H     70.31000000    83.52000000    49.11000000
   H     68.51000000    84.25000000    47.83000000
   H     68.59000000    81.92000000    48.37000000
   H     68.92000000    81.49000000    46.67000000
   H     67.47000000    82.16000000    44.89000000
   H     66.52000000    82.44000000    49.01000000
   H     65.03000000    82.12000000    44.31000000
   H     64.04000000    82.31000000    48.49000000
   H     63.32000000    82.13000000    46.17000000
   N     69.66000000    85.53000000    45.95000000
   C     69.97000000    86.30000000    44.76000000
   C     71.41000000    86.10000000    44.29000000
   O     71.65000000    86.34000000    43.11000000
   C     69.53000000    87.71000000    45.13000000
   C     69.86000000    87.81000000    46.61000000
   C     69.56000000    86.40000000    47.11000000
   H     69.36000000    85.89000000    43.94000000
   H     69.92000000    88.53000000    44.52000000
   H     68.44000000    87.80000000    45.07000000
   H     70.91000000    88.03000000    46.81000000
   H     69.18000000    88.54000000    47.05000000
   H     70.19000000    86.18000000    47.98000000
   H     68.51000000    86.45000000    47.40000000
   N     72.34000000    85.55000000    45.06000000
   C     73.64000000    85.13000000    44.57000000
   C     73.57000000    83.87000000    43.73000000
   O     74.30000000    83.78000000    42.74000000
   C     74.58000000    84.94000000    45.76000000
   C     76.05000000    84.72000000    45.42000000
   C     76.94000000    84.62000000    46.65000000
   O     76.81000000    83.66000000    47.45000000
   O     77.55000000    85.62000000    47.09000000
   H     71.99000000    85.27000000    45.97000000
   H     74.04000000    85.86000000    43.87000000
   H     74.23000000    84.14000000    46.41000000
   H     74.53000000    85.90000000    46.27000000
   H     76.24000000    85.67000000    44.92000000
   H     76.25000000    83.87000000    44.76000000
   N     72.58000000    83.01000000    43.93000000
   C     72.36000000    81.85000000    43.08000000
   H     71.53500000    82.05200000    42.39700000
   H     73.26300000    81.64300000    42.50600000
   H     72.11500000    80.98700000    43.69900000
   H     72.03000000    83.13000000    44.77000000
  Ca     77.82000000    84.59000000    49.66000000
   O     77.01000000    82.47000000    50.75000000
   H     77.16000000    81.56000000    50.48000000
   H     76.28000000    82.42000000    51.37000000
   O     79.82000000    84.58000000    51.43000000
   H     80.52000000    85.02000000    50.95000000
   H     80.12000000    84.55000000    52.33000000
   O     79.24000000    86.82000000    49.05000000
   H     78.92000000    87.67000000    49.38000000
   H     79.54000000    87.01000000    48.16000000

Ca 1.00



