%chk=loop1.holoCaM-CaMKII.run27.water2.chk
%nprocshared=20
%mem=10GB
%nosave
#b3lyp/svp scf=(tight,noincore,xqc) Test 
#IOP(5/87=12) Density=Current Pop=(MK,readradii) iop(6/33=2) iop(6/42=6)

loop1.holoCaM-CaMKII.run27.water2 

   0  1 
   C     92.73000000    49.21000000    24.51000000
   C     94.06000000    48.67000000    24.03000000
   O     94.11000000    47.52000000    23.59000000
   H     91.96700000    48.43900000    24.40700000
   H     92.81200000    49.50100000    25.55700000
   H     92.45200000    50.07800000    23.91200000
   N     95.14000000    49.46000000    24.08000000
   C     96.42000000    48.97000000    23.63000000
   C     97.02000000    47.89000000    24.52000000
   O     97.64000000    48.14000000    25.56000000
   C     97.38000000    50.14000000    23.47000000
   C     98.85000000    49.82000000    23.22000000
   O     99.71000000    50.73000000    23.29000000
   O     99.03000000    48.70000000    22.69000000
   H     95.03000000    50.43000000    24.33000000
   H     96.26000000    48.44000000    22.68000000
   H     97.26000000    50.75000000    24.36000000
   H     97.05000000    50.72000000    22.61000000
   N     96.88000000    46.65000000    24.07000000
   C     97.12000000    45.44000000    24.82000000
   C     98.58000000    45.06000000    25.04000000
   O     98.87000000    44.15000000    25.82000000
   C     96.18000000    44.34000000    24.34000000
   C     94.82000000    44.44000000    25.01000000
   C     94.73000000    43.90000000    26.44000000
   C     93.32000000    43.94000000    27.04000000
   N     92.68000000    45.26000000    27.05000000
   H     96.67000000    46.54000000    23.08000000
   H     96.84000000    45.67000000    25.85000000
   H     96.67000000    43.37000000    24.50000000
   H     96.01000000    44.33000000    23.26000000
   H     94.06000000    44.01000000    24.36000000
   H     94.70000000    45.52000000    25.11000000
   H     95.33000000    44.52000000    27.10000000
   H     95.10000000    42.88000000    26.51000000
   H     93.34000000    43.50000000    28.04000000
   H     92.66000000    43.30000000    26.47000000
   H     92.26000000    45.50000000    26.16000000
   H     91.97000000    45.18000000    27.77000000
   H     93.33000000    45.96000000    27.38000000
   N     99.55000000    45.84000000    24.56000000
   C    100.96000000    45.53000000    24.72000000
   C    101.83000000    46.72000000    25.11000000
   O    102.97000000    46.56000000    25.53000000
   C    101.46000000    44.78000000    23.49000000
   C    101.17000000    45.22000000    22.06000000
   O    100.86000000    46.40000000    21.80000000
   O    101.34000000    44.37000000    21.16000000
   H     99.28000000    46.75000000    24.22000000
   H    101.01000000    44.85000000    25.56000000
   H    100.90000000    43.84000000    23.57000000
   H    102.51000000    44.51000000    23.64000000
   N    101.37000000    47.97000000    25.01000000
   C    102.00000000    49.22000000    25.40000000
   C    103.00000000    49.80000000    24.41000000
   O    104.06000000    50.25000000    24.83000000
   H    100.42000000    48.06000000    24.69000000
   H    102.58000000    49.12000000    26.31000000
   H    101.24000000    49.99000000    25.60000000
   N    102.57000000    49.90000000    23.16000000
   C    103.26000000    50.54000000    22.05000000
   C    102.79000000    51.94000000    21.65000000
   O    103.59000000    52.61000000    21.00000000
   C    103.31000000    49.53000000    20.92000000
   C    101.97000000    49.21000000    20.29000000
   O    101.85000000    48.18000000    19.59000000
   O    100.97000000    49.93000000    20.49000000
   H    101.60000000    49.64000000    23.04000000
   H    104.30000000    50.70000000    22.33000000
   H    103.78000000    48.58000000    21.20000000
   H    104.00000000    49.94000000    20.18000000
   N    101.61000000    52.41000000    22.03000000
   C    100.99000000    53.67000000    21.67000000
   C    100.12000000    53.58000000    20.43000000
   O     99.92000000    54.62000000    19.80000000
   H    101.13000000    51.79000000    22.67000000
   H    101.74000000    54.45000000    21.47000000
   H    100.38000000    54.05000000    22.48000000
   N     99.57000000    52.43000000    20.04000000
   C     98.75000000    52.20000000    18.87000000
   C     97.78000000    51.05000000    19.05000000
   O     98.17000000    50.10000000    19.74000000
   C     99.55000000    52.00000000    17.58000000
   C     99.97000000    53.34000000    16.99000000
   O    100.68000000    51.17000000    17.71000000
   H     99.93000000    51.57000000    20.44000000
   H     98.19000000    53.13000000    18.77000000
   H     98.88000000    51.53000000    16.86000000
   H    100.53000000    50.82000000    18.59000000
   H    100.47000000    53.05000000    16.06000000
   H     99.07000000    53.90000000    16.76000000
   H    100.60000000    53.86000000    17.71000000
   N     96.58000000    51.00000000    18.45000000
   C     95.61000000    49.95000000    18.65000000
   C     95.24000000    49.25000000    17.35000000
   O     94.99000000    49.92000000    16.35000000
   C     94.40000000    50.54000000    19.37000000
   C     94.74000000    51.51000000    20.51000000
   C     93.57000000    49.35000000    19.85000000
   C     93.52000000    52.33000000    20.91000000
   H     96.36000000    51.67000000    17.73000000
   H     96.07000000    49.19000000    19.28000000
   H     93.80000000    51.15000000    18.69000000
   H     95.50000000    52.24000000    20.27000000
   H     95.10000000    51.03000000    21.41000000
   H     94.14000000    48.85000000    20.63000000
   H     92.65000000    49.66000000    20.34000000
   H     93.31000000    48.64000000    19.07000000
   H     93.72000000    52.56000000    21.96000000
   H     93.56000000    53.27000000    20.35000000
   H     92.53000000    51.88000000    20.84000000
   N     95.14000000    47.92000000    17.30000000
   C     94.67000000    47.11000000    16.20000000
   C     93.20000000    46.71000000    16.27000000
   O     92.54000000    46.76000000    17.30000000
   C     95.60000000    45.92000000    15.95000000
   C     97.06000000    46.30000000    16.18000000
   O     95.34000000    44.83000000    16.81000000
   H     95.59000000    47.38000000    18.03000000
   H     94.82000000    47.70000000    15.29000000
   H     95.46000000    45.69000000    14.90000000
   H     95.91000000    44.13000000    16.49000000
   H     97.28000000    46.10000000    17.23000000
   H     97.73000000    45.70000000    15.56000000
   H     97.26000000    47.37000000    16.05000000
   N     92.75000000    46.18000000    15.13000000
   C     91.49000000    45.46000000    15.09000000
   C     91.27000000    44.35000000    16.11000000
   O     90.20000000    44.26000000    16.72000000
   C     91.30000000    44.99000000    13.65000000
   C     91.31000000    46.14000000    12.65000000
   O     92.16000000    43.89000000    13.42000000
   H     93.22000000    46.26000000    14.24000000
   H     90.69000000    46.18000000    15.23000000
   H     90.29000000    44.59000000    13.63000000
   H     91.85000000    43.55000000    12.58000000
   H     90.80000000    46.97000000    13.16000000
   H     92.29000000    46.27000000    12.19000000
   H     90.66000000    45.82000000    11.84000000
   N     92.32000000    43.55000000    16.31000000
   C     92.43000000    42.50000000    17.30000000
   C     92.63000000    42.98000000    18.72000000
   O     92.12000000    42.31000000    19.62000000
   C     93.52000000    41.46000000    17.05000000
   C     93.45000000    40.20000000    17.90000000
   C     94.33000000    39.08000000    17.35000000
   C     95.74000000    39.46000000    16.91000000
   N     96.44000000    38.28000000    16.38000000
   H     93.19000000    43.86000000    15.89000000
   H     91.49000000    41.93000000    17.32000000
   H     94.47000000    41.98000000    17.16000000
   H     93.36000000    41.14000000    16.02000000
   H     92.42000000    39.84000000    17.95000000
   H     93.68000000    40.41000000    18.95000000
   H     93.74000000    38.67000000    16.52000000
   H     94.38000000    38.28000000    18.09000000
   H     96.30000000    39.80000000    17.78000000
   H     95.78000000    40.28000000    16.18000000
   H     96.27000000    37.52000000    17.03000000
   H     96.00000000    37.92000000    15.55000000
   H     97.44000000    38.27000000    16.22000000
   N     93.18000000    44.19000000    18.85000000
   C     93.10000000    44.84000000    20.15000000
   C     91.74000000    45.39000000    20.54000000
   O     91.40000000    45.52000000    21.71000000
   C     94.31000000    45.76000000    20.25000000
   C     95.70000000    45.13000000    20.21000000
   C     96.76000000    46.20000000    20.43000000
   O     96.99000000    47.07000000    19.57000000
   O     97.43000000    46.16000000    21.48000000
   H     93.42000000    44.75000000    18.05000000
   H     93.33000000    44.11000000    20.93000000
   H     94.21000000    46.29000000    21.20000000
   H     94.26000000    46.55000000    19.50000000
   H     95.91000000    44.58000000    19.29000000
   H     95.73000000    44.46000000    21.07000000
   N     90.92000000    45.68000000    19.53000000
   C     89.54000000    46.03000000    19.78000000
   H     88.91300000    45.14900000    19.64800000
   H     89.43700000    46.39900000    20.80100000
   H     89.22900000    46.80500000    19.08000000
   H     91.18000000    45.68000000    18.55000000
  Ca     99.41000000    47.73000000    20.35000000
   O     99.54000000    48.28000000    17.67000000
   H     99.09000000    47.88000000    16.93000000
   H     99.97000000    49.05000000    17.29000000
   O     99.85600000    45.39000000    19.21000000
   H    100.39600000    44.78000000    19.72000000
   H     99.55600000    44.88000000    18.46000000

Ca 1.00



