%chk=loop2.apoCaM-CA-Ng.Init31.run43.water5.chk
%nprocshared=20
%mem=10GB
%nosave
#b3lyp/svp scf=(tight,noincore,xqc) Test 
#IOP(5/87=12) Density=Current Pop=(MK,readradii) iop(6/33=2) iop(6/42=6)

loop2.apoCaM-CA-Ng.Init31.run43.water5 

   -2  1 
   C    106.16000000    61.90000000    -7.15000000
   C    104.79000000    62.55000000    -6.98000000
   O    103.81000000    61.82000000    -6.97000000
   H    106.88400000    62.40800000    -6.51300000
   H    106.10200000    60.84900000    -6.86600000
   H    106.47400000    61.97900000    -8.19100000
   N    104.70000000    63.87000000    -7.10000000
   C    105.70000000    64.91000000    -6.93000000
   C    105.53000000    66.00000000    -7.98000000
   O    104.39000000    66.38000000    -8.26000000
   C    105.73000000    65.60000000    -5.57000000
   C    104.41000000    66.05000000    -4.98000000
   O    103.32000000    65.89000000    -5.57000000
   O    104.43000000    66.57000000    -3.84000000
   H    103.75000000    64.21000000    -6.99000000
   H    106.68000000    64.49000000    -7.15000000
   H    106.45000000    66.42000000    -5.62000000
   H    106.14000000    64.90000000    -4.84000000
   N    106.62000000    66.61000000    -8.43000000
   C    106.66000000    67.72000000    -9.36000000
   C    105.96000000    68.93000000    -8.75000000
   O    106.60000000    69.58000000    -7.92000000
   C    106.40000000    67.26000000   -10.79000000
   H    107.51000000    66.42000000    -7.98000000
   H    107.71000000    67.98000000    -9.47000000
   H    106.21000000    68.12000000   -11.41000000
   H    107.22000000    66.67000000   -11.20000000
   H    105.54000000    66.59000000   -10.76000000
   N    104.70000000    69.29000000    -9.01000000
   C    103.99000000    70.36000000    -8.35000000
   C    103.47000000    69.93000000    -6.99000000
   O    103.09000000    68.78000000    -6.78000000
   C    102.94000000    70.88000000    -9.33000000
   C    102.02000000    69.78000000    -9.85000000
   O    102.08000000    68.61000000    -9.42000000
   O    101.23000000    70.01000000   -10.80000000
   H    104.11000000    68.64000000    -9.51000000
   H    104.67000000    71.20000000    -8.23000000
   H    103.45000000    71.32000000   -10.19000000
   H    102.27000000    71.58000000    -8.84000000
   N    103.22000000    70.85000000    -6.05000000
   C    102.92000000    70.43000000    -4.70000000
   C    101.45000000    70.65000000    -4.37000000
   O    100.71000000    71.24000000    -5.15000000
   H    103.42000000    71.84000000    -6.10000000
   H    103.62000000    70.93000000    -4.02000000
   H    103.00000000    69.36000000    -4.53000000
   N    101.08000000    70.30000000    -3.14000000
   C     99.82000000    70.44000000    -2.43000000
   C    100.04000000    70.79000000    -0.96000000
   O    100.94000000    70.20000000    -0.38000000
   C     98.99000000    69.18000000    -2.58000000
   C     98.42000000    68.99000000    -3.98000000
   N     97.79000000    70.01000000    -4.58000000
   O     98.47000000    67.88000000    -4.51000000
   H    101.85000000    69.98000000    -2.57000000
   H     99.26000000    71.27000000    -2.86000000
   H     98.12000000    69.13000000    -1.93000000
   H     99.59000000    68.32000000    -2.28000000
   H     97.42000000    70.72000000    -3.96000000
   H     97.41000000    69.77000000    -5.48000000
   N     99.08000000    71.52000000    -0.39000000
   C     98.97000000    71.96000000     0.99000000
   C     97.67000000    72.62000000     1.43000000
   O     96.84000000    73.08000000     0.65000000
   H     98.23000000    71.57000000    -0.93000000
   H     99.75000000    72.72000000     1.08000000
   H     99.23000000    71.10000000     1.60000000
   N     97.35000000    72.67000000     2.72000000
   C     98.18000000    72.29000000     3.85000000
   C     98.19000000    70.81000000     4.22000000
   O     98.97000000    70.39000000     5.06000000
   C     97.73000000    72.97000000     5.14000000
   C     98.17000000    74.42000000     5.26000000
   O     96.33000000    72.87000000     5.30000000
   H     96.42000000    73.03000000     2.91000000
   H     99.20000000    72.60000000     3.63000000
   H     98.28000000    72.47000000     5.94000000
   H     96.18000000    72.45000000     6.15000000
   H     97.89000000    74.69000000     6.28000000
   H     99.24000000    74.53000000     5.09000000
   H     97.76000000    75.02000000     4.45000000
   N     97.20000000    70.09000000     3.68000000
   C     96.72000000    68.74000000     3.88000000
   C     96.15000000    68.56000000     5.28000000
   O     96.94000000    68.49000000     6.22000000
   C     97.81000000    67.72000000     3.59000000
   C     98.53000000    67.81000000     2.25000000
   C     97.44000000    66.24000000     3.75000000
   C     97.53000000    67.60000000     1.11000000
   H     96.68000000    70.56000000     2.95000000
   H     95.95000000    68.49000000     3.14000000
   H     98.61000000    67.97000000     4.29000000
   H     99.33000000    67.07000000     2.23000000
   H     99.05000000    68.76000000     2.28000000
   H     97.16000000    66.05000000     4.78000000
   H     96.56000000    66.04000000     3.14000000
   H     98.27000000    65.60000000     3.46000000
   H     96.98000000    66.66000000     1.15000000
   H     96.68000000    68.27000000     1.11000000
   H     98.04000000    67.55000000     0.15000000
   N     94.86000000    68.35000000     5.54000000
   C     93.80000000    68.42000000     4.55000000
   C     93.47000000    67.05000000     3.98000000
   O     93.89000000    66.64000000     2.90000000
   C     92.62000000    69.19000000     5.14000000
   C     92.14000000    68.89000000     6.55000000
   O     92.47000000    67.81000000     7.09000000
   O     91.23000000    69.57000000     7.07000000
   H     94.60000000    68.35000000     6.52000000
   H     94.09000000    69.15000000     3.79000000
   H     91.77000000    68.96000000     4.51000000
   H     92.85000000    70.25000000     5.24000000
   N     92.82000000    66.22000000     4.79000000
   C     92.51000000    64.82000000     4.53000000
   C     91.05000000    64.48000000     4.76000000
   O     90.42000000    65.24000000     5.49000000
   C     93.32000000    63.93000000     5.46000000
   C     92.95000000    63.99000000     6.93000000
   C     93.61000000    64.88000000     7.79000000
   C     92.09000000    63.06000000     7.51000000
   C     93.50000000    64.72000000     9.17000000
   C     91.87000000    62.95000000     8.89000000
   C     92.62000000    63.79000000     9.73000000
   H     92.49000000    66.50000000     5.70000000
   H     92.71000000    64.64000000     3.48000000
   H     94.35000000    64.26000000     5.32000000
   H     93.25000000    62.87000000     5.20000000
   H     94.29000000    65.60000000     7.36000000
   H     91.60000000    62.35000000     6.85000000
   H     94.17000000    65.27000000     9.82000000
   H     91.05000000    62.39000000     9.31000000
   H     92.46000000    63.69000000    10.79000000
   N     90.44000000    63.43000000     4.18000000
   C     91.06000000    62.37000000     3.42000000
   C     91.25000000    62.73000000     1.95000000
   O     90.74000000    63.71000000     1.41000000
   C     90.11000000    61.21000000     3.67000000
   C     88.73000000    61.85000000     3.75000000
   C     89.04000000    63.17000000     4.45000000
   H     92.08000000    62.10000000     3.71000000
   H     90.23000000    60.45000000     2.89000000
   H     90.29000000    60.77000000     4.65000000
   H     88.31000000    61.94000000     2.74000000
   H     88.06000000    61.21000000     4.32000000
   H     88.46000000    63.96000000     3.97000000
   H     88.97000000    63.06000000     5.53000000
   N     92.00000000    61.86000000     1.27000000
   C     92.22000000    61.77000000    -0.15000000
   C     93.59000000    61.22000000    -0.54000000
   O     93.77000000    60.87000000    -1.70000000
   C     91.07000000    60.94000000    -0.71000000
   C     89.74000000    61.69000000    -0.74000000
   C     89.77000000    63.04000000    -1.46000000
   O     88.86000000    63.84000000    -1.14000000
   O     90.62000000    63.33000000    -2.32000000
   H     92.42000000    61.17000000     1.88000000
   H     92.10000000    62.80000000    -0.49000000
   H     90.83000000    60.02000000    -0.17000000
   H     91.33000000    60.74000000    -1.75000000
   H     89.38000000    61.87000000     0.27000000
   H     89.04000000    61.05000000    -1.27000000
   N     94.72000000    61.20000000     0.17000000
   C     95.02000000    61.65000000     1.51000000
   H     95.82700000    62.38200000     1.47500000
   H     94.13300000    62.10900000     1.94700000
   H     95.32800000    60.80000000     2.11900000
   H     95.46000000    60.73000000    -0.32000000
  Ca    101.86500000    66.65000000    -7.71500000
   O     99.68000000    66.22000000    -9.24500000
   H     99.14000000    66.77000000    -9.81500000
   H     99.10000000    65.50000000    -8.98500000
   O     99.84500000    68.19000000    -6.87500000
   H     99.42500000    69.02000000    -7.13500000
   H     99.50500000    68.03000000    -5.99500000
   O    100.44500000    65.44000000    -5.58500000
   H    100.10500000    64.56000000    -5.45500000
   H    100.79500000    65.69000000    -4.72500000
   O    102.49500000    65.54000000   -10.45500000
   H    102.63500000    65.83000000   -11.35500000
   H    102.96500000    64.72000000   -10.38500000
   O    101.92500000    63.95000000    -7.82500000
   H    101.53500000    63.35000000    -7.18500000
   H    102.29500000    63.38000000    -8.49500000

Ca 1.00



