%chk=loop1.apoCaM-CA-Ng.Init31.run46.water4.chk
%nprocshared=20
%mem=10GB
%nosave
#b3lyp/svp scf=(tight,noincore,xqc) Test 
#IOP(5/87=12) Density=Current Pop=(MK,readradii) iop(6/33=2) iop(6/42=6)

loop1.apoCaM-CA-Ng.Init31.run46.water4 

   0  1 
   C     94.48000000    46.78000000    23.77000000
   C     95.51000000    47.77000000    24.27000000
   O     95.95000000    47.73000000    25.41000000
   H     93.59700000    47.31800000    23.42500000
   H     94.89900000    46.20400000    22.94500000
   H     94.20000000    46.10600000    24.57900000
   N     95.81000000    48.85000000    23.54000000
   C     96.71000000    49.92000000    23.90000000
   C     96.01000000    51.27000000    23.92000000
   O     94.93000000    51.44000000    23.36000000
   C     97.73000000    49.88000000    22.77000000
   C     98.97000000    50.69000000    23.11000000
   O     99.20000000    51.12000000    24.26000000
   O     99.81000000    50.94000000    22.21000000
   H     95.39000000    48.93000000    22.62000000
   H     97.17000000    49.73000000    24.87000000
   H     97.21000000    50.18000000    21.86000000
   H     98.07000000    48.85000000    22.62000000
   N     96.68000000    52.29000000    24.48000000
   C     96.18000000    53.61000000    24.83000000
   C     95.72000000    54.35000000    23.58000000
   O     94.62000000    54.89000000    23.55000000
   C     97.21000000    54.26000000    25.73000000
   C     97.11000000    53.73000000    27.16000000
   C     95.84000000    54.08000000    27.93000000
   C     95.86000000    53.60000000    29.38000000
   N     94.57000000    53.83000000    30.04000000
   H     97.61000000    52.13000000    24.83000000
   H     95.24000000    53.44000000    25.36000000
   H     97.01000000    55.33000000    25.71000000
   H     98.18000000    54.09000000    25.25000000
   H     97.99000000    54.13000000    27.64000000
   H     97.22000000    52.64000000    27.23000000
   H     94.99000000    53.65000000    27.39000000
   H     95.72000000    55.15000000    27.82000000
   H     96.64000000    54.11000000    29.94000000
   H     96.08000000    52.53000000    29.35000000
   H     93.87000000    53.33000000    29.51000000
   H     94.32000000    53.41000000    30.92000000
   H     94.33000000    54.81000000    29.93000000
   N     96.38000000    54.39000000    22.42000000
   C     97.77000000    54.09000000    22.14000000
   C     98.00000000    53.87000000    20.66000000
   O     97.52000000    54.60000000    19.79000000
   C     98.69000000    55.19000000    22.67000000
   C    100.16000000    54.82000000    22.54000000
   O    100.59000000    53.68000000    22.23000000
   O    100.94000000    55.65000000    23.04000000
   H     95.93000000    54.91000000    21.68000000
   H     98.07000000    53.14000000    22.60000000
   H     98.55000000    55.39000000    23.74000000
   H     98.56000000    56.09000000    22.08000000
   N     98.86000000    52.91000000    20.29000000
   C     99.13000000    52.49000000    18.93000000
   C     99.82000000    51.14000000    18.85000000
   O     99.24000000    50.08000000    18.60000000
   H     99.40000000    52.46000000    21.01000000
   H     99.80000000    53.18000000    18.40000000
   H     98.19000000    52.38000000    18.38000000
   N    101.14000000    51.32000000    18.90000000
   C    102.07000000    50.28000000    18.53000000
   C    102.27000000    50.19000000    17.02000000
   O    102.14000000    51.23000000    16.38000000
   C    103.38000000    50.47000000    19.28000000
   C    103.16000000    50.83000000    20.75000000
   O    102.61000000    49.94000000    21.43000000
   O    103.54000000    51.89000000    21.30000000
   H    101.50000000    52.24000000    19.13000000
   H    101.65000000    49.30000000    18.76000000
   H    104.01000000    51.21000000    18.79000000
   H    104.03000000    49.60000000    19.21000000
   N    102.67000000    49.08000000    16.41000000
   C    103.20000000    47.90000000    17.07000000
   C    104.71000000    47.69000000    17.12000000
   O    105.02000000    46.64000000    17.68000000
   H    102.75000000    49.06000000    15.41000000
   H    102.76000000    47.03000000    16.56000000
   H    102.66000000    47.75000000    18.00000000
   N    105.54000000    48.64000000    16.69000000
   C    106.94000000    48.33000000    16.47000000
   C    107.27000000    47.33000000    15.38000000
   O    107.78000000    46.24000000    15.64000000
   C    107.62000000    48.12000000    17.82000000
   C    107.33000000    49.06000000    18.99000000
   O    109.03000000    48.18000000    17.67000000
   H    105.18000000    49.44000000    16.20000000
   H    107.29000000    49.31000000    16.15000000
   H    107.34000000    47.13000000    18.19000000
   H    109.35000000    47.28000000    17.74000000
   H    107.97000000    48.67000000    19.78000000
   H    107.46000000    50.10000000    18.71000000
   H    106.27000000    48.98000000    19.26000000
   N    106.87000000    47.67000000    14.15000000
   C    106.99000000    47.01000000    12.87000000
   C    108.43000000    46.81000000    12.41000000
   O    108.72000000    47.18000000    11.27000000
   C    106.23000000    45.69000000    12.95000000
   C    104.76000000    46.10000000    13.11000000
   C    106.48000000    44.83000000    11.72000000
   C    103.76000000    45.02000000    13.51000000
   H    106.41000000    48.57000000    14.12000000
   H    106.50000000    47.70000000    12.17000000
   H    106.56000000    45.09000000    13.79000000
   H    104.43000000    46.50000000    12.15000000
   H    104.66000000    46.83000000    13.91000000
   H    106.35000000    45.47000000    10.85000000
   H    107.48000000    44.40000000    11.77000000
   H    105.74000000    44.03000000    11.81000000
   H    103.92000000    44.63000000    14.51000000
   H    102.75000000    45.43000000    13.53000000
   H    103.94000000    44.27000000    12.74000000
   N    109.32000000    46.26000000    13.23000000
   C    110.68000000    45.91000000    12.87000000
   C    111.12000000    44.49000000    13.21000000
   O    110.65000000    43.94000000    14.21000000
   C    111.68000000    46.86000000    13.52000000
   C    111.71000000    46.81000000    15.04000000
   O    111.31000000    48.19000000    13.26000000
   H    109.01000000    45.91000000    14.13000000
   H    110.79000000    45.89000000    11.78000000
   H    112.66000000    46.66000000    13.07000000
   H    112.14000000    48.65000000    13.44000000
   H    110.66000000    46.85000000    15.35000000
   H    111.99000000    45.83000000    15.42000000
   H    112.35000000    47.62000000    15.40000000
   N    112.09000000    43.96000000    12.47000000
   C    112.63000000    42.63000000    12.73000000
   C    113.48000000    42.55000000    13.99000000
   O    114.27000000    43.44000000    14.29000000
   C    113.35000000    42.21000000    11.45000000
   C    114.30000000    41.03000000    11.66000000
   O    112.55000000    41.87000000    10.35000000
   H    112.40000000    44.43000000    11.63000000
   H    111.79000000    41.95000000    12.87000000
   H    114.05000000    42.99000000    11.13000000
   H    112.73000000    42.64000000     9.81000000
   H    113.89000000    40.33000000    12.38000000
   H    114.42000000    40.62000000    10.66000000
   H    115.28000000    41.30000000    12.06000000
   N    113.20000000    41.52000000    14.78000000
   C    113.57000000    41.14000000    16.13000000
   C    113.28000000    42.24000000    17.15000000
   O    114.23000000    42.67000000    17.82000000
   C    115.01000000    40.64000000    16.20000000
   C    115.26000000    39.25000000    15.63000000
   C    116.74000000    38.94000000    15.77000000
   C    117.54000000    39.79000000    14.79000000
   N    118.93000000    39.92000000    15.26000000
   H    112.46000000    40.91000000    14.46000000
   H    112.94000000    40.34000000    16.51000000
   H    115.23000000    40.49000000    17.25000000
   H    115.59000000    41.45000000    15.74000000
   H    114.94000000    39.14000000    14.59000000
   H    114.64000000    38.59000000    16.23000000
   H    116.99000000    37.91000000    15.51000000
   H    117.06000000    39.09000000    16.80000000
   H    117.14000000    40.81000000    14.81000000
   H    117.47000000    39.46000000    13.76000000
   H    119.34000000    39.18000000    15.82000000
   H    119.60000000    40.20000000    14.56000000
   H    119.06000000    40.70000000    15.89000000
   N    112.04000000    42.71000000    17.26000000
   C    111.50000000    43.73000000    18.13000000
   C    110.27000000    44.49000000    17.66000000
   O    110.28000000    45.70000000    17.91000000
   C    111.34000000    43.13000000    19.52000000
   C    110.43000000    43.85000000    20.51000000
   C    110.63000000    43.59000000    21.99000000
   O    111.39000000    44.33000000    22.66000000
   O    110.13000000    42.63000000    22.61000000
   H    111.42000000    42.38000000    16.53000000
   H    112.30000000    44.45000000    18.30000000
   H    112.32000000    43.04000000    20.00000000
   H    111.05000000    42.09000000    19.37000000
   H    109.40000000    43.55000000    20.29000000
   H    110.46000000    44.92000000    20.30000000
   N    109.20000000    44.03000000    17.01000000
   C    108.99000000    42.72000000    16.43000000
   H    108.13200000    42.75400000    15.75900000
   H    109.87700000    42.42300000    15.87000000
   H    108.80100000    41.99700000    17.22300000
   H    108.52000000    44.75000000    16.80000000
  Ca    101.97900000    51.73000000    23.40000000
   O    103.20900000    54.16000000    23.69000000
   H    102.45900000    54.67000000    23.37000000
   H    103.71900000    54.78000000    24.20000000
   O    104.06900000    51.18000000    24.92000000
   H    104.57900000    50.49000000    25.35000000
   H    104.22900000    51.96000000    25.46000000
   O    101.49900000    52.94000000    25.69000000
   H    101.19900000    53.84000000    25.60000000
   H    101.24900000    52.69000000    26.58000000
   O    101.44900000    49.21000000    24.11000000
   H    101.15900000    48.94000000    24.98000000
   H    102.27900000    48.74000000    23.98000000

Ca 1.00



