%chk=loop4.apoCaM-CA-Ng.Init295.run40.water2.chk
%nprocshared=20
%mem=10GB
%nosave
#b3lyp/svp scf=(tight,noincore,xqc) Test 
#IOP(5/87=12) Density=Current Pop=(MK,readradii) iop(6/33=2) iop(6/42=6)

loop4.apoCaM-CA-Ng.Init295.run40.water2 

   -3  1 
   C     83.54000000    18.39000000    58.55000000
   C     84.82000000    17.67000000    58.92000000
   O     85.95000000    18.14000000    58.80000000
   H     82.77300000    18.17200000    59.29300000
   H     83.72200000    19.46400000    58.52100000
   H     83.20200000    18.05200000    57.57000000
   N     84.69000000    16.40000000    59.31000000
   C     85.83000000    15.66000000    59.82000000
   C     86.60000000    16.13000000    61.04000000
   O     87.82000000    16.30000000    61.13000000
   C     86.77000000    15.15000000    58.72000000
   C     85.96000000    14.42000000    57.66000000
   O     85.54000000    14.95000000    56.61000000
   O     85.68000000    13.23000000    57.94000000
   H     83.78000000    16.05000000    59.55000000
   H     85.45000000    14.70000000    60.18000000
   H     87.51000000    14.52000000    59.21000000
   H     87.28000000    16.02000000    58.31000000
   N     85.86000000    16.46000000    62.10000000
   C     86.40000000    17.05000000    63.31000000
   C     86.05000000    16.22000000    64.54000000
   O     84.94000000    16.27000000    65.06000000
   C     85.93000000    18.48000000    63.50000000
   C     86.39000000    19.37000000    62.35000000
   C     86.56000000    18.95000000    64.81000000
   C     85.79000000    20.77000000    62.45000000
   H     84.88000000    16.41000000    61.86000000
   H     87.48000000    17.13000000    63.22000000
   H     84.84000000    18.44000000    63.55000000
   H     86.16000000    19.05000000    61.33000000
   H     87.46000000    19.51000000    62.51000000
   H     86.12000000    19.92000000    65.07000000
   H     86.41000000    18.37000000    65.72000000
   H     87.62000000    19.07000000    64.63000000
   H     86.34000000    21.24000000    63.26000000
   H     85.96000000    21.26000000    61.49000000
   H     84.72000000    20.83000000    62.67000000
   N     87.02000000    15.64000000    65.25000000
   C     88.42000000    15.46000000    64.92000000
   C     88.76000000    14.47000000    63.82000000
   O     89.90000000    14.42000000    63.38000000
   C     89.08000000    15.03000000    66.22000000
   C     88.76000000    15.94000000    67.41000000
   O     89.66000000    16.78000000    67.65000000
   O     87.66000000    15.93000000    67.99000000
   H     86.71000000    15.19000000    66.11000000
   H     88.89000000    16.39000000    64.60000000
   H     90.16000000    14.98000000    66.10000000
   H     88.75000000    14.03000000    66.53000000
   N     87.77000000    13.72000000    63.32000000
   C     87.97000000    12.93000000    62.12000000
   C     89.01000000    11.83000000    62.26000000
   O     89.32000000    11.42000000    63.38000000
   H     86.86000000    13.73000000    63.76000000
   H     88.07000000    13.55000000    61.24000000
   H     87.03000000    12.42000000    61.90000000
   N     89.55000000    11.21000000    61.21000000
   C     90.72000000    10.35000000    61.28000000
   C     91.98000000    11.10000000    61.67000000
   O     92.86000000    10.51000000    62.30000000
   C     90.97000000     9.48000000    60.05000000
   C     90.94000000    10.24000000    58.73000000
   O     91.99000000    10.86000000    58.43000000
   O     89.86000000    10.37000000    58.11000000
   H     89.27000000    11.47000000    60.27000000
   H     90.46000000     9.53000000    61.94000000
   H     90.13000000     8.79000000    60.02000000
   H     91.88000000     8.88000000    60.07000000
   N     92.11000000    12.40000000    61.40000000
   C     93.33000000    13.16000000    61.60000000
   C     94.15000000    13.58000000    60.39000000
   O     94.76000000    14.64000000    60.43000000
   H     91.43000000    12.86000000    60.81000000
   H     94.00000000    12.47000000    62.11000000
   H     93.08000000    14.00000000    62.25000000
   N     94.11000000    12.82000000    59.30000000
   C     95.03000000    13.05000000    58.20000000
   C     94.99000000    14.35000000    57.40000000
   O     95.99000000    14.82000000    56.88000000
   C     96.47000000    12.77000000    58.62000000
   C     96.63000000    11.41000000    59.28000000
   C     98.10000000    11.01000000    59.40000000
   N     98.37000000     9.80000000    59.89000000
   O     99.07000000    11.68000000    59.05000000
   H     93.44000000    12.06000000    59.28000000
   H     94.86000000    12.30000000    57.43000000
   H     96.82000000    13.63000000    59.19000000
   H     97.11000000    12.82000000    57.74000000
   H     96.15000000    10.66000000    58.65000000
   H     96.32000000    11.51000000    60.32000000
   H     97.63000000     9.17000000    60.15000000
   H     99.35000000     9.58000000    59.95000000
   N     93.84000000    15.04000000    57.31000000
   C     93.74000000    16.37000000    56.74000000
   C     93.65000000    16.40000000    55.23000000
   O     93.24000000    15.42000000    54.61000000
   C     92.67000000    17.19000000    57.45000000
   C     91.32000000    16.47000000    57.39000000
   C     93.07000000    17.52000000    58.88000000
   H     92.96000000    14.55000000    57.33000000
   H     94.65000000    16.93000000    56.96000000
   H     92.51000000    18.15000000    56.97000000
   H     90.56000000    17.11000000    57.85000000
   H     90.97000000    16.18000000    56.40000000
   H     91.36000000    15.49000000    57.87000000
   H     94.08000000    17.91000000    58.98000000
   H     92.37000000    18.25000000    59.29000000
   H     92.93000000    16.58000000    59.40000000
   N     94.03000000    17.51000000    54.60000000
   C     94.09000000    17.62000000    53.16000000
   C     93.22000000    18.78000000    52.68000000
   O     93.51000000    19.89000000    53.11000000
   C     95.55000000    17.97000000    52.88000000
   C     95.85000000    18.28000000    51.42000000
   N     95.31000000    17.62000000    50.39000000
   O     96.65000000    19.18000000    51.19000000
   H     94.33000000    18.28000000    55.19000000
   H     93.86000000    16.68000000    52.65000000
   H     96.20000000    17.16000000    53.18000000
   H     95.88000000    18.82000000    53.48000000
   H     94.59000000    16.92000000    50.50000000
   H     95.33000000    18.17000000    49.55000000
   N     92.21000000    18.64000000    51.83000000
   C     91.49000000    19.72000000    51.18000000
   C     90.09000000    19.25000000    50.82000000
   O     89.65000000    19.61000000    49.73000000
   C     92.38000000    20.19000000    50.03000000
   C     92.16000000    21.65000000    49.70000000
   C     92.17000000    22.71000000    50.62000000
   C     91.86000000    21.97000000    48.38000000
   C     91.70000000    23.99000000    50.29000000
   C     91.51000000    23.27000000    47.98000000
   C     91.39000000    24.29000000    48.95000000
   O     90.89000000    25.51000000    48.64000000
   H     92.09000000    17.75000000    51.37000000
   H     91.43000000    20.52000000    51.93000000
   H     92.17000000    19.60000000    49.14000000
   H     93.46000000    20.17000000    50.21000000
   H     92.49000000    22.46000000    51.62000000
   H     91.81000000    21.17000000    47.65000000
   H     91.70000000    24.78000000    51.03000000
   H     91.15000000    23.48000000    46.99000000
   H     90.64000000    25.53000000    47.72000000
   N     89.44000000    18.36000000    51.56000000
   C     88.23000000    17.65000000    51.19000000
   C     87.02000000    18.50000000    50.83000000
   O     86.64000000    18.37000000    49.67000000
   C     87.89000000    16.50000000    52.14000000
   C     86.70000000    15.74000000    51.56000000
   C     86.26000000    14.52000000    52.36000000
   O     86.71000000    13.41000000    52.02000000
   O     85.69000000    14.65000000    53.46000000
   H     89.78000000    18.19000000    52.50000000
   H     88.47000000    17.20000000    50.23000000
   H     87.81000000    16.74000000    53.20000000
   H     88.75000000    15.84000000    51.99000000
   H     86.85000000    15.31000000    50.57000000
   H     85.82000000    16.38000000    51.50000000
   N     86.49000000    19.44000000    51.61000000
   C     86.69000000    19.70000000    53.02000000
   C     87.87000000    20.64000000    53.22000000
   O     88.27000000    21.46000000    52.40000000
   C     85.42000000    20.30000000    53.60000000
   C     84.07000000    19.65000000    53.32000000
   C     84.01000000    18.22000000    53.83000000
   O     83.14000000    17.49000000    53.31000000
   O     84.75000000    17.73000000    54.72000000
   H     85.64000000    19.80000000    51.18000000
   H     86.89000000    18.78000000    53.57000000
   H     85.41000000    21.33000000    53.25000000
   H     85.54000000    20.37000000    54.68000000
   H     83.83000000    19.69000000    52.25000000
   H     83.31000000    20.18000000    53.88000000
   N     88.47000000    20.65000000    54.41000000
   C     89.36000000    21.62000000    55.01000000
   H     90.26100000    21.71000000    54.40300000
   H     88.86100000    22.58700000    55.06400000
   H     89.63000000    21.29400000    56.01400000
   H     87.97000000    19.97000000    54.97000000
  Ca     83.71000000    15.34000000    54.79000000
   O     82.48000000    14.56000000    52.51000000
   H     82.44000000    14.46000000    51.56000000
   H     81.58000000    14.75000000    52.77000000
   O     84.37000000    12.66000000    55.31000000
   H     85.07000000    12.56000000    55.95000000
   H     83.89000000    11.83000000    55.35000000

Ca 1.00



