%chk=loop1.holoCaM-CaMKII.run26.water2.chk
%nprocshared=20
%mem=10GB
%nosave
#b3lyp/svp scf=(tight,noincore,xqc) Test 
#IOP(5/87=12) Density=Current Pop=(MK,readradii) iop(6/33=2) iop(6/42=6)

loop1.holoCaM-CaMKII.run26.water2 

   0  1 
   C     89.10000000    55.27000000    21.55000000
   C     90.12000000    54.68000000    20.59000000
   O     90.04000000    53.48000000    20.32000000
   H     88.16500000    54.71500000    21.47300000
   H     89.47900000    55.20200000    22.57000000
   H     88.92300000    56.31500000    21.29600000
   N     90.93000000    55.52000000    19.95000000
   C     92.02000000    55.19000000    19.06000000
   C     93.02000000    54.32000000    19.81000000
   O     94.05000000    54.89000000    20.16000000
   C     92.57000000    56.48000000    18.47000000
   C     93.75000000    56.20000000    17.56000000
   O     94.48000000    57.20000000    17.35000000
   O     94.01000000    55.12000000    16.99000000
   H     90.84000000    56.52000000    20.11000000
   H     91.55000000    54.63000000    18.25000000
   H     92.88000000    57.17000000    19.27000000
   H     91.80000000    57.12000000    18.04000000
   N     92.80000000    53.03000000    20.07000000
   C     93.68000000    52.25000000    20.91000000
   C     94.95000000    51.73000000    20.24000000
   O     95.91000000    51.51000000    20.98000000
   C     92.92000000    51.09000000    21.54000000
   C     91.99000000    51.52000000    22.67000000
   C     91.27000000    50.37000000    23.38000000
   C     90.38000000    50.69000000    24.58000000
   N     89.16000000    51.41000000    24.18000000
   H     91.86000000    52.72000000    19.89000000
   H     94.10000000    52.98000000    21.60000000
   H     93.57000000    50.40000000    22.08000000
   H     92.40000000    50.48000000    20.79000000
   H     91.19000000    52.15000000    22.29000000
   H     92.54000000    52.06000000    23.44000000
   H     92.02000000    49.70000000    23.79000000
   H     90.75000000    49.80000000    22.62000000
   H     91.00000000    51.32000000    25.22000000
   H     90.10000000    49.83000000    25.20000000
   H     88.57000000    51.56000000    24.98000000
   H     89.44000000    52.33000000    23.87000000
   H     88.67000000    50.96000000    23.42000000
   N     95.10000000    51.70000000    18.91000000
   C     96.43000000    51.46000000    18.40000000
   C     97.28000000    52.71000000    18.19000000
   O     98.48000000    52.71000000    17.96000000
   C     96.32000000    50.72000000    17.07000000
   C     95.25000000    51.17000000    16.10000000
   O     94.74000000    50.29000000    15.37000000
   O     94.75000000    52.32000000    16.16000000
   H     94.44000000    52.16000000    18.30000000
   H     97.10000000    50.90000000    19.05000000
   H     96.17000000    49.66000000    17.31000000
   H     97.28000000    50.68000000    16.56000000
   N     96.62000000    53.87000000    18.27000000
   C     97.18000000    55.21000000    18.24000000
   C     97.82000000    55.68000000    16.94000000
   O     99.01000000    55.99000000    16.95000000
   H     95.62000000    53.74000000    18.36000000
   H     97.94000000    55.32000000    19.01000000
   H     96.33000000    55.89000000    18.37000000
   N     97.01000000    55.67000000    15.88000000
   C     97.38000000    56.15000000    14.57000000
   C     96.90000000    57.57000000    14.32000000
   O     97.11000000    58.07000000    13.22000000
   C     96.86000000    55.18000000    13.51000000
   C     95.37000000    54.89000000    13.55000000
   O     94.96000000    53.74000000    13.28000000
   O     94.54000000    55.75000000    13.94000000
   H     96.04000000    55.39000000    15.99000000
   H     98.47000000    56.17000000    14.48000000
   H     97.47000000    54.28000000    13.54000000
   H     97.08000000    55.61000000    12.53000000
   N     96.09000000    58.19000000    15.18000000
   C     95.56000000    59.54000000    15.16000000
   C     94.18000000    59.50000000    14.52000000
   O     93.67000000    60.57000000    14.20000000
   H     96.03000000    57.66000000    16.04000000
   H     96.25000000    60.23000000    14.67000000
   H     95.45000000    59.77000000    16.22000000
   N     93.49000000    58.36000000    14.43000000
   C     92.17000000    58.25000000    13.84000000
   C     91.35000000    57.17000000    14.52000000
   O     91.91000000    56.17000000    14.96000000
   C     92.29000000    57.94000000    12.35000000
   C     92.97000000    58.94000000    11.41000000
   O     92.89000000    56.67000000    12.23000000
   H     93.84000000    57.64000000    15.04000000
   H     91.73000000    59.24000000    13.98000000
   H     91.25000000    57.88000000    12.04000000
   H     93.58000000    56.61000000    12.89000000
   H     94.00000000    59.07000000    11.74000000
   H     92.82000000    58.51000000    10.42000000
   H     92.53000000    59.93000000    11.56000000
   N     90.01000000    57.26000000    14.46000000
   C     89.02000000    56.37000000    15.03000000
   C     88.18000000    55.69000000    13.97000000
   O     87.60000000    56.36000000    13.12000000
   C     88.19000000    56.99000000    16.15000000
   C     89.08000000    57.63000000    17.22000000
   C     87.22000000    55.96000000    16.73000000
   C     88.39000000    58.74000000    18.01000000
   H     89.63000000    58.12000000    14.10000000
   H     89.67000000    55.59000000    15.43000000
   H     87.57000000    57.69000000    15.60000000
   H     89.88000000    58.25000000    16.82000000
   H     89.41000000    56.80000000    17.83000000
   H     86.37000000    55.85000000    16.06000000
   H     87.69000000    54.98000000    16.79000000
   H     86.80000000    56.29000000    17.68000000
   H     87.65000000    58.32000000    18.69000000
   H     89.11000000    59.29000000    18.60000000
   H     87.90000000    59.50000000    17.40000000
   N     88.07000000    54.36000000    14.02000000
   C     87.22000000    53.51000000    13.21000000
   C     85.85000000    53.20000000    13.80000000
   O     85.66000000    53.33000000    15.01000000
   C     87.87000000    52.15000000    12.95000000
   C     88.92000000    52.22000000    11.85000000
   O     88.41000000    51.46000000    14.05000000
   H     88.69000000    53.85000000    14.64000000
   H     87.03000000    54.01000000    12.27000000
   H     87.04000000    51.53000000    12.62000000
   H     89.07000000    52.04000000    14.45000000
   H     89.27000000    51.22000000    11.58000000
   H     88.58000000    52.70000000    10.93000000
   H     89.73000000    52.78000000    12.32000000
   N     84.94000000    52.60000000    13.04000000
   C     83.71000000    52.05000000    13.58000000
   C     84.01000000    50.91000000    14.53000000
   O     83.41000000    50.73000000    15.59000000
   C     82.85000000    51.47000000    12.46000000
   C     82.04000000    52.56000000    11.76000000
   O     83.46000000    50.69000000    11.46000000
   H     85.13000000    52.62000000    12.05000000
   H     83.12000000    52.80000000    14.12000000
   H     82.07000000    50.85000000    12.90000000
   H     83.28000000    51.04000000    10.59000000
   H     81.55000000    53.13000000    12.55000000
   H     82.74000000    53.21000000    11.23000000
   H     81.35000000    52.16000000    11.02000000
   N     85.02000000    50.08000000    14.23000000
   C     85.43000000    49.06000000    15.17000000
   C     85.91000000    49.58000000    16.52000000
   O     85.53000000    48.94000000    17.50000000
   C     86.44000000    48.30000000    14.32000000
   C     87.10000000    47.12000000    15.03000000
   C     88.08000000    46.28000000    14.22000000
   C     88.60000000    45.12000000    15.06000000
   N     89.55000000    44.30000000    14.28000000
   H     85.51000000    50.10000000    13.35000000
   H     84.50000000    48.52000000    15.34000000
   H     87.19000000    49.05000000    14.04000000
   H     85.94000000    47.84000000    13.47000000
   H     86.32000000    46.38000000    15.21000000
   H     87.61000000    47.41000000    15.95000000
   H     88.90000000    46.89000000    13.85000000
   H     87.51000000    45.80000000    13.42000000
   H     87.85000000    44.40000000    15.37000000
   H     89.03000000    45.48000000    15.99000000
   H     89.07000000    43.69000000    13.65000000
   H     90.23000000    44.89000000    13.83000000
   H     89.97000000    43.66000000    14.94000000
   N     86.71000000    50.65000000    16.54000000
   C     87.28000000    51.18000000    17.76000000
   C     86.19000000    51.82000000    18.62000000
   O     86.28000000    51.77000000    19.85000000
   C     88.35000000    52.21000000    17.43000000
   C     89.65000000    51.50000000    17.06000000
   C     90.64000000    52.49000000    16.46000000
   O     90.34000000    52.92000000    15.33000000
   O     91.79000000    52.66000000    16.91000000
   H     86.91000000    51.18000000    15.70000000
   H     87.78000000    50.41000000    18.35000000
   H     88.43000000    52.83000000    18.32000000
   H     88.10000000    52.89000000    16.61000000
   H     89.44000000    50.64000000    16.42000000
   H     90.03000000    51.20000000    18.04000000
   N     85.06000000    52.28000000    18.10000000
   C     83.86000000    52.53000000    18.87000000
   H     83.03400000    51.95500000    18.45100000
   H     84.02300000    52.23000000    19.90500000
   H     83.61900000    53.59200000    18.83300000
   H     84.98000000    52.45000000    17.10000000
  Ca     92.99000000    53.81000000    15.00000000
   O     91.72000000    54.26000000    12.60000000
   H     92.24000000    55.04000000    12.40000000
   H     91.93000000    53.65000000    11.90000000
   O     92.65000000    51.36000000    14.06000000
   H     92.11000000    50.66000000    13.71000000
   H     93.39000000    50.92000000    14.47000000

Ca 1.00



