%chk=loop3.apoCaM-CA-Ng.Init295.run32.water3.chk
%nprocshared=20
%mem=10GB
%nosave
#b3lyp/svp scf=(tight,noincore,xqc) Test 
#IOP(5/87=12) Density=Current Pop=(MK,readradii) iop(6/33=2) iop(6/42=6)

loop3.apoCaM-CA-Ng.Init295.run32.water3 

   0  1 
   C     83.13000000    48.57000000    74.70000000
   C     83.57000000    48.04000000    76.05000000
   O     84.64000000    48.52000000    76.42000000
   H     82.26700000    49.22300000    74.83000000
   H     83.94600000    49.13300000    74.24600000
   H     82.85900000    47.73600000    74.05200000
   N     82.84000000    47.17000000    76.75000000
   C     83.08000000    46.68000000    78.10000000
   C     84.03000000    45.50000000    78.02000000
   O     84.08000000    44.77000000    77.03000000
   C     81.74000000    46.30000000    78.71000000
   C     81.76000000    45.76000000    80.13000000
   O     81.32000000    46.38000000    81.13000000
   O     82.22000000    44.62000000    80.33000000
   H     82.05000000    46.70000000    76.33000000
   H     83.51000000    47.52000000    78.65000000
   H     81.20000000    45.62000000    78.04000000
   H     81.13000000    47.20000000    78.65000000
   N     84.80000000    45.34000000    79.10000000
   C     85.87000000    44.36000000    79.20000000
   C     85.40000000    42.92000000    79.17000000
   O     86.10000000    42.08000000    78.60000000
   C     86.59000000    44.67000000    80.51000000
   C     87.99000000    44.08000000    80.68000000
   C     89.25000000    44.76000000    80.15000000
   C     90.44000000    44.00000000    80.73000000
   N     90.55000000    42.64000000    80.19000000
   H     84.76000000    45.86000000    79.97000000
   H     86.53000000    44.50000000    78.34000000
   H     86.03000000    44.53000000    81.43000000
   H     86.72000000    45.75000000    80.45000000
   H     87.91000000    43.05000000    80.34000000
   H     88.24000000    44.10000000    81.74000000
   H     89.24000000    45.75000000    80.60000000
   H     89.28000000    44.88000000    79.07000000
   H     90.52000000    44.01000000    81.82000000
   H     91.30000000    44.59000000    80.42000000
   H     90.32000000    42.64000000    79.21000000
   H     91.48000000    42.26000000    80.33000000
   H     89.93000000    41.96000000    80.61000000
   N     84.15000000    42.57000000    79.51000000
   C     83.50000000    41.29000000    79.67000000
   C     82.15000000    41.21000000    78.97000000
   O     81.60000000    40.13000000    78.74000000
   C     83.33000000    40.97000000    81.15000000
   C     82.58000000    41.99000000    82.01000000
   O     81.34000000    42.12000000    81.94000000
   O     83.27000000    42.55000000    82.89000000
   H     83.70000000    43.39000000    79.88000000
   H     84.17000000    40.50000000    79.32000000
   H     84.29000000    40.67000000    81.56000000
   H     82.80000000    40.01000000    81.14000000
   N     81.62000000    42.32000000    78.47000000
   C     80.41000000    42.49000000    77.69000000
   C     79.13000000    42.57000000    78.51000000
   O     78.08000000    42.68000000    77.88000000
   H     82.03000000    43.16000000    78.86000000
   H     80.22000000    41.68000000    76.98000000
   H     80.64000000    43.43000000    77.19000000
   N     79.10000000    42.61000000    79.85000000
   C     77.92000000    42.96000000    80.61000000
   C     78.16000000    44.33000000    81.21000000
   O     79.11000000    44.50000000    81.99000000
   C     77.53000000    42.03000000    81.75000000
   C     77.18000000    40.61000000    81.32000000
   N     76.05000000    40.52000000    80.61000000
   O     77.80000000    39.59000000    81.64000000
   H     79.96000000    42.50000000    80.37000000
   H     77.08000000    42.94000000    79.91000000
   H     76.63000000    42.45000000    82.20000000
   H     78.27000000    42.01000000    82.56000000
   H     75.65000000    41.34000000    80.19000000
   H     75.77000000    39.58000000    80.34000000
   N     77.38000000    45.35000000    80.83000000
   C     77.70000000    46.73000000    81.11000000
   C     77.72000000    47.30000000    82.52000000
   O     78.05000000    48.46000000    82.76000000
   H     76.63000000    45.21000000    80.17000000
   H     76.93000000    47.28000000    80.56000000
   H     78.58000000    47.05000000    80.56000000
   N     77.51000000    46.45000000    83.53000000
   C     77.85000000    46.73000000    84.91000000
   C     79.34000000    46.94000000    85.16000000
   O     80.21000000    46.30000000    84.57000000
   C     77.37000000    45.58000000    85.80000000
   C     75.88000000    45.43000000    85.96000000
   C     75.22000000    46.12000000    86.98000000
   C     75.19000000    44.59000000    85.08000000
   C     73.83000000    46.07000000    87.16000000
   C     73.81000000    44.45000000    85.27000000
   C     73.18000000    45.14000000    86.32000000
   O     71.84000000    45.00000000    86.52000000
   H     77.39000000    45.45000000    83.42000000
   H     77.32000000    47.65000000    85.16000000
   H     77.72000000    45.62000000    86.83000000
   H     77.79000000    44.67000000    85.39000000
   H     75.76000000    46.86000000    87.56000000
   H     75.69000000    44.19000000    84.20000000
   H     73.20000000    46.49000000    87.92000000
   H     73.21000000    43.83000000    84.62000000
   H     71.56000000    44.29000000    85.94000000
   N     79.64000000    47.80000000    86.14000000
   C     80.90000000    48.30000000    86.64000000
   C     81.83000000    47.24000000    87.22000000
   O     81.71000000    46.04000000    87.02000000
   C     81.59000000    49.20000000    85.62000000
   C     80.70000000    50.28000000    85.01000000
   C     82.23000000    48.59000000    84.37000000
   C     80.16000000    51.39000000    85.91000000
   H     78.91000000    48.10000000    86.78000000
   H     80.68000000    48.96000000    87.48000000
   H     82.41000000    49.69000000    86.15000000
   H     79.88000000    49.86000000    84.43000000
   H     81.32000000    50.93000000    84.38000000
   H     82.87000000    47.77000000    84.69000000
   H     81.43000000    48.24000000    83.73000000
   H     82.84000000    49.36000000    83.88000000
   H     80.10000000    52.35000000    85.40000000
   H     79.25000000    51.01000000    86.36000000
   H     80.87000000    51.52000000    86.73000000
   N     82.98000000    47.67000000    87.76000000
   C     84.04000000    46.83000000    88.28000000
   C     83.89000000    46.56000000    89.77000000
   O     84.25000000    45.46000000    90.17000000
   C     85.42000000    47.39000000    87.94000000
   O     85.44000000    48.79000000    88.14000000
   H     82.92000000    48.64000000    88.02000000
   H     83.96000000    45.81000000    87.89000000
   H     85.56000000    47.24000000    86.87000000
   H     86.29000000    46.93000000    88.42000000
   H     86.31000000    49.05000000    87.84000000
   N     83.43000000    47.49000000    90.60000000
   C     83.17000000    47.17000000    91.99000000
   C     84.12000000    46.28000000    92.78000000
   O     83.68000000    45.43000000    93.55000000
   C     81.73000000    46.67000000    92.06000000
   H     83.03000000    48.32000000    90.18000000
   H     83.16000000    48.13000000    92.52000000
   H     81.11000000    47.43000000    91.59000000
   H     81.65000000    45.71000000    91.56000000
   H     81.44000000    46.58000000    93.11000000
   N     85.42000000    46.57000000    92.72000000
   C     86.10000000    47.73000000    92.19000000
   C     86.07000000    48.83000000    93.25000000
   O     86.29000000    48.58000000    94.43000000
   C     87.44000000    47.14000000    91.78000000
   H     85.94000000    46.01000000    93.39000000
   H     85.64000000    48.15000000    91.30000000
   H     88.06000000    47.87000000    91.26000000
   H     87.95000000    46.69000000    92.63000000
   H     87.21000000    46.31000000    91.10000000
   N     85.76000000    50.08000000    92.92000000
   C     85.60000000    50.70000000    91.61000000
   C     84.52000000    51.77000000    91.72000000
   O     83.65000000    51.84000000    90.86000000
   C     86.95000000    51.30000000    91.25000000
   C     87.67000000    52.10000000    92.33000000
   C     88.69000000    52.94000000    91.57000000
   O     88.50000000    54.16000000    91.38000000
   O     89.81000000    52.40000000    91.37000000
   H     85.68000000    50.65000000    93.75000000
   H     85.19000000    49.97000000    90.90000000
   H     86.69000000    51.86000000    90.35000000
   H     87.69000000    50.57000000    90.92000000
   H     88.13000000    51.53000000    93.13000000
   H     86.97000000    52.76000000    92.83000000
   N     84.32000000    52.59000000    92.76000000
   C     83.36000000    53.68000000    92.78000000
   H     82.45100000    53.35400000    93.28600000
   H     83.78600000    54.53000000    93.31200000
   H     83.12100000    53.97300000    91.75800000
   H     84.94000000    52.47000000    93.55000000
  Ca     81.63000000    44.72000000    83.04000000
   O     84.02000000    45.82000000    82.57000000
   H     83.98000000    46.61000000    82.03000000
   H     84.89000000    45.85000000    82.98000000
   O     80.27000000    43.02000000    84.77000000
   H     80.37000000    42.07000000    84.78000000
   H     80.37000000    43.28000000    85.68000000
   O     83.04000000    44.47000000    85.21000000
   H     83.88000000    44.10000000    85.50000000
   H     82.77000000    45.04000000    85.93000000

Ca 1.00



