%chk=loop4.apoCaM-CA-Ng.Init293.run87.water3.chk
%nprocshared=20
%mem=10GB
%nosave
#b3lyp/svp scf=(tight,noincore,xqc) Test 
#IOP(5/87=12) Density=Current Pop=(MK,readradii) iop(6/33=2) iop(6/42=6)

loop4.apoCaM-CA-Ng.Init293.run87.water3 

   -3  1 
   C     68.36000000    76.18000000    31.97000000
   C     68.16000000    74.67000000    31.84000000
   O     67.25000000    74.16000000    31.19000000
   H     69.27200000    76.47100000    31.44900000
   H     67.50900000    76.69900000    31.52900000
   H     68.44300000    76.44700000    33.02400000
   N     69.12000000    73.96000000    32.43000000
   C     69.26000000    72.54000000    32.68000000
   C     68.97000000    71.58000000    31.53000000
   O     68.99000000    70.37000000    31.77000000
   C     68.69000000    72.07000000    34.01000000
   C     67.30000000    71.46000000    33.95000000
   O     66.52000000    71.99000000    33.13000000
   O     66.86000000    70.56000000    34.71000000
   H     69.89000000    74.52000000    32.76000000
   H     70.34000000    72.52000000    32.87000000
   H     68.66000000    72.84000000    34.78000000
   H     69.44000000    71.46000000    34.51000000
   N     68.58000000    71.95000000    30.31000000
   C     68.30000000    71.09000000    29.19000000
   C     66.94000000    70.43000000    29.38000000
   O     65.99000000    71.05000000    29.86000000
   C     68.47000000    71.83000000    27.86000000
   C     69.94000000    72.23000000    27.71000000
   C     67.58000000    73.07000000    27.84000000
   C     70.34000000    72.68000000    26.31000000
   H     68.24000000    72.90000000    30.21000000
   H     69.03000000    70.28000000    29.19000000
   H     68.21000000    71.16000000    27.04000000
   H     70.48000000    71.30000000    27.88000000
   H     70.09000000    72.95000000    28.52000000
   H     67.51000000    73.26000000    26.77000000
   H     66.60000000    72.70000000    28.15000000
   H     67.92000000    74.00000000    28.29000000
   H     69.76000000    73.58000000    26.09000000
   H     71.42000000    72.76000000    26.17000000
   H     70.04000000    71.90000000    25.61000000
   N     66.77000000    69.18000000    28.95000000
   C     65.52000000    68.45000000    29.10000000
   C     65.12000000    68.30000000    30.56000000
   O     66.02000000    68.10000000    31.37000000
   C     65.67000000    67.15000000    28.32000000
   C     67.01000000    66.41000000    28.36000000
   O     68.05000000    66.90000000    27.88000000
   O     67.00000000    65.34000000    28.99000000
   H     67.54000000    68.73000000    28.48000000
   H     64.72000000    69.00000000    28.59000000
   H     65.53000000    67.38000000    27.27000000
   H     64.90000000    66.48000000    28.69000000
   N     63.85000000    68.47000000    30.92000000
   C     62.66000000    68.67000000    30.11000000
   C     62.31000000    70.15000000    30.05000000
   O     62.80000000    70.97000000    30.82000000
   H     63.66000000    68.40000000    31.91000000
   H     61.89000000    68.09000000    30.61000000
   H     62.86000000    68.33000000    29.09000000
   N     61.50000000    70.62000000    29.10000000
   C     60.72000000    69.90000000    28.11000000
   C     60.58000000    70.85000000    26.92000000
   O     59.98000000    71.92000000    27.04000000
   C     59.31000000    69.59000000    28.61000000
   C     58.43000000    68.80000000    27.65000000
   O     57.27000000    68.60000000    28.06000000
   O     58.88000000    68.32000000    26.59000000
   H     61.42000000    71.62000000    29.04000000
   H     61.14000000    68.95000000    27.77000000
   H     58.84000000    70.49000000    29.02000000
   H     59.46000000    69.00000000    29.51000000
   N     61.17000000    70.68000000    25.74000000
   C     61.89000000    69.51000000    25.28000000
   C     62.41000000    69.53000000    23.85000000
   O     62.83000000    68.52000000    23.28000000
   H     61.10000000    71.48000000    25.12000000
   H     61.28000000    68.61000000    25.33000000
   H     62.77000000    69.43000000    25.93000000
   N     62.46000000    70.73000000    23.28000000
   C     63.02000000    70.95000000    21.96000000
   C     64.10000000    72.02000000    22.09000000
   O     63.77000000    73.20000000    21.94000000
   C     61.85000000    71.28000000    21.04000000
   C     60.78000000    70.19000000    20.97000000
   C     59.91000000    70.32000000    19.72000000
   N     59.12000000    71.39000000    19.66000000
   O     60.01000000    69.62000000    18.72000000
   H     62.00000000    71.52000000    23.72000000
   H     63.54000000    70.08000000    21.56000000
   H     62.34000000    71.57000000    20.11000000
   H     61.43000000    72.26000000    21.29000000
   H     60.11000000    70.29000000    21.83000000
   H     61.20000000    69.19000000    21.09000000
   H     58.99000000    71.88000000    20.53000000
   H     58.41000000    71.50000000    18.94000000
   N     65.34000000    71.67000000    22.42000000
   C     66.43000000    72.61000000    22.52000000
   C     66.18000000    73.91000000    23.27000000
   O     65.95000000    73.85000000    24.48000000
   C     67.57000000    71.85000000    23.20000000
   C     68.80000000    72.75000000    23.07000000
   C     67.88000000    70.47000000    22.63000000
   H     65.47000000    70.74000000    22.79000000
   H     66.71000000    72.87000000    21.50000000
   H     67.41000000    71.77000000    24.28000000
   H     68.98000000    73.15000000    22.07000000
   H     68.71000000    73.57000000    23.77000000
   H     69.70000000    72.18000000    23.31000000
   H     67.11000000    69.76000000    22.93000000
   H     68.11000000    70.60000000    21.57000000
   H     68.78000000    70.07000000    23.11000000
   N     66.29000000    75.03000000    22.55000000
   C     66.20000000    76.36000000    23.12000000
   C     64.77000000    76.88000000    23.10000000
   O     64.52000000    77.93000000    23.68000000
   C     67.19000000    77.31000000    22.45000000
   C     67.42000000    78.69000000    23.04000000
   N     67.43000000    79.74000000    22.22000000
   O     67.56000000    78.84000000    24.25000000
   H     66.52000000    74.94000000    21.57000000
   H     66.54000000    76.37000000    24.15000000
   H     66.85000000    77.34000000    21.41000000
   H     68.19000000    76.88000000    22.58000000
   H     67.23000000    79.53000000    21.25000000
   H     67.46000000    80.65000000    22.64000000
   N     63.76000000    76.24000000    22.50000000
   C     62.39000000    76.70000000    22.61000000
   C     61.91000000    76.44000000    24.03000000
   O     62.21000000    75.44000000    24.67000000
   C     61.64000000    75.83000000    21.60000000
   C     61.85000000    76.19000000    20.15000000
   C     63.07000000    75.92000000    19.53000000
   C     60.83000000    76.88000000    19.48000000
   C     63.36000000    76.36000000    18.23000000
   C     61.12000000    77.23000000    18.15000000
   C     62.32000000    76.95000000    17.48000000
   O     62.50000000    77.39000000    16.20000000
   H     63.91000000    75.31000000    22.14000000
   H     62.30000000    77.75000000    22.35000000
   H     60.58000000    75.81000000    21.88000000
   H     61.92000000    74.78000000    21.67000000
   H     63.76000000    75.34000000    20.13000000
   H     59.90000000    77.15000000    19.97000000
   H     64.30000000    76.27000000    17.71000000
   H     60.26000000    77.66000000    17.65000000
   H     63.37000000    77.31000000    15.80000000
   N     61.02000000    77.32000000    24.50000000
   C     60.42000000    77.34000000    25.82000000
   C     61.40000000    77.61000000    26.95000000
   O     61.13000000    78.45000000    27.80000000
   C     59.63000000    76.06000000    26.09000000
   C     58.61000000    75.89000000    24.97000000
   C     57.48000000    74.88000000    25.11000000
   O     56.85000000    74.81000000    26.19000000
   O     57.32000000    73.98000000    24.26000000
   H     60.61000000    78.05000000    23.94000000
   H     59.79000000    78.22000000    25.79000000
   H     59.12000000    76.15000000    27.05000000
   H     60.36000000    75.25000000    26.15000000
   H     59.12000000    75.69000000    24.03000000
   H     58.19000000    76.89000000    24.93000000
   N     62.59000000    77.01000000    26.93000000
   C     63.72000000    77.53000000    27.67000000
   C     64.02000000    79.00000000    27.39000000
   O     64.50000000    79.71000000    28.26000000
   C     64.99000000    76.71000000    27.49000000
   C     64.74000000    75.21000000    27.60000000
   C     64.39000000    74.56000000    28.93000000
   O     64.02000000    73.37000000    29.01000000
   O     64.49000000    75.18000000    30.01000000
   H     62.74000000    76.26000000    26.27000000
   H     63.41000000    77.33000000    28.70000000
   H     65.69000000    76.97000000    28.28000000
   H     65.47000000    76.93000000    26.53000000
   H     65.74000000    74.85000000    27.35000000
   H     63.98000000    74.94000000    26.87000000
   N     63.85000000    79.51000000    26.17000000
   C     63.95000000    80.92000000    25.82000000
   H     64.94200000    81.12400000    25.41600000
   H     63.19600000    81.16300000    25.07100000
   H     63.78900000    81.52800000    26.71000000
   H     63.61000000    78.84000000    25.46000000
  Ca     64.78000000    72.85000000    31.42000000
   O     64.23000000    70.92000000    33.20000000
   H     65.13000000    71.03000000    33.50000000
   H     64.07000000    69.98000000    33.28000000
   O     64.99000000    74.57000000    33.38000000
   H     64.59000000    74.50000000    34.25000000
   H     65.65000000    75.26000000    33.48000000
   O     62.37000000    73.55000000    32.44000000
   H     62.18000000    73.05000000    33.23000000
   H     61.69000000    73.29000000    31.82000000

Ca 1.00



