%chk=loop3.holoCaM-CaMKII.run87.water2.chk
%nprocshared=20
%mem=10GB
%nosave
#b3lyp/svp scf=(tight,noincore,xqc) Test 
#IOP(5/87=12) Density=Current Pop=(MK,readradii) iop(6/33=2) iop(6/42=6)

loop3.holoCaM-CaMKII.run87.water2 

   0  1 
   C     40.36000000    32.28000000    -1.94000000
   C     39.16000000    31.84000000    -1.10000000
   O     38.86000000    30.65000000    -1.05000000
   H     41.22400000    31.66600000    -1.68800000
   H     40.12700000    32.16100000    -2.99800000
   H     40.58600000    33.32600000    -1.73200000
   N     38.61000000    32.73000000    -0.28000000
   C     37.60000000    32.55000000     0.74000000
   C     36.30000000    32.46000000    -0.05000000
   O     35.87000000    33.48000000    -0.57000000
   C     37.58000000    33.70000000     1.74000000
   C     36.44000000    33.71000000     2.75000000
   O     36.31000000    34.66000000     3.56000000
   O     35.61000000    32.79000000     2.72000000
   H     38.81000000    33.72000000    -0.39000000
   H     37.80000000    31.65000000     1.32000000
   H     37.56000000    34.66000000     1.22000000
   H     38.49000000    33.66000000     2.33000000
   N     35.69000000    31.27000000    -0.11000000
   C     34.59000000    31.00000000    -1.01000000
   C     33.26000000    31.65000000    -0.64000000
   O     32.39000000    31.66000000    -1.52000000
   C     34.73000000    29.51000000    -1.32000000
   C     33.89000000    29.00000000    -2.48000000
   C     34.28000000    27.58000000    -2.86000000
   C     33.29000000    27.15000000    -3.94000000
   N     33.19000000    25.68000000    -4.01000000
   H     36.11000000    30.56000000     0.47000000
   H     34.74000000    31.57000000    -1.93000000
   H     34.50000000    28.88000000    -0.46000000
   H     35.76000000    29.24000000    -1.54000000
   H     34.06000000    29.62000000    -3.37000000
   H     32.86000000    29.09000000    -2.16000000
   H     34.19000000    26.88000000    -2.03000000
   H     35.32000000    27.58000000    -3.19000000
   H     33.60000000    27.67000000    -4.84000000
   H     32.33000000    27.53000000    -3.59000000
   H     34.09000000    25.21000000    -3.95000000
   H     32.64000000    25.36000000    -3.23000000
   H     32.69000000    25.40000000    -4.84000000
   N     33.22000000    32.27000000     0.54000000
   C     32.02000000    32.74000000     1.21000000
   C     32.19000000    34.03000000     2.00000000
   O     31.17000000    34.62000000     2.34000000
   C     31.56000000    31.62000000     2.14000000
   C     32.66000000    31.15000000     3.08000000
   O     33.36000000    30.13000000     2.86000000
   O     32.93000000    31.78000000     4.12000000
   H     34.10000000    32.25000000     1.03000000
   H     31.32000000    33.00000000     0.41000000
   H     31.32000000    30.82000000     1.44000000
   H     30.68000000    32.03000000     2.63000000
   N     33.40000000    34.55000000     2.23000000
   C     33.63000000    35.87000000     2.78000000
   C     33.68000000    36.04000000     4.30000000
   O     33.81000000    37.15000000     4.80000000
   H     34.28000000    34.09000000     2.05000000
   H     32.91000000    36.56000000     2.35000000
   H     34.55000000    36.25000000     2.34000000
   N     33.71000000    34.95000000     5.07000000
   C     33.81000000    34.97000000     6.52000000
   C     35.19000000    35.32000000     7.06000000
   O     35.32000000    35.32000000     8.28000000
   C     33.36000000    33.63000000     7.09000000
   C     34.42000000    32.55000000     7.03000000
   N     34.76000000    31.84000000     8.11000000
   O     35.11000000    32.28000000     6.05000000
   H     33.54000000    34.07000000     4.61000000
   H     33.13000000    35.70000000     6.96000000
   H     32.42000000    33.36000000     6.61000000
   H     33.04000000    33.73000000     8.13000000
   H     34.44000000    32.07000000     9.04000000
   H     35.27000000    30.97000000     8.17000000
   N     36.20000000    35.58000000     6.23000000
   C     37.55000000    35.87000000     6.67000000
   C     38.39000000    34.63000000     6.92000000
   O     39.40000000    34.75000000     7.60000000
   H     36.04000000    35.51000000     5.23000000
   H     37.64000000    36.56000000     7.51000000
   H     37.98000000    36.39000000     5.81000000
   N     38.06000000    33.44000000     6.39000000
   C     38.78000000    32.21000000     6.65000000
   C     38.96000000    31.37000000     5.39000000
   O     38.07000000    31.28000000     4.55000000
   C     38.22000000    31.38000000     7.80000000
   C     38.38000000    31.93000000     9.19000000
   C     39.42000000    31.47000000    10.01000000
   C     37.50000000    32.90000000     9.67000000
   C     39.57000000    31.87000000    11.34000000
   C     37.62000000    33.39000000    10.98000000
   C     38.66000000    32.85000000    11.77000000
   O     38.80000000    33.25000000    13.07000000
   H     37.29000000    33.40000000     5.74000000
   H     39.79000000    32.51000000     6.96000000
   H     38.68000000    30.39000000     7.75000000
   H     37.15000000    31.30000000     7.61000000
   H     40.07000000    30.68000000     9.64000000
   H     36.67000000    33.27000000     9.09000000
   H     40.24000000    31.36000000    12.01000000
   H     36.89000000    34.10000000    11.32000000
   H     39.69000000    33.10000000    13.39000000
   N     40.11000000    30.73000000     5.19000000
   C     40.41000000    29.77000000     4.14000000
   C     40.83000000    28.44000000     4.74000000
   O     41.64000000    28.31000000     5.66000000
   C     41.44000000    30.25000000     3.12000000
   C     41.42000000    31.73000000     2.73000000
   C     41.42000000    29.45000000     1.82000000
   C     42.81000000    32.29000000     2.48000000
   H     40.83000000    30.89000000     5.87000000
   H     39.49000000    29.49000000     3.61000000
   H     42.40000000    30.08000000     3.61000000
   H     41.00000000    32.33000000     3.54000000
   H     40.78000000    31.89000000     1.86000000
   H     40.49000000    29.64000000     1.29000000
   H     42.21000000    29.64000000     1.10000000
   H     41.44000000    28.36000000     1.96000000
   H     43.43000000    32.35000000     3.38000000
   H     43.35000000    31.72000000     1.72000000
   H     42.71000000    33.28000000     2.04000000
   N     40.20000000    27.39000000     4.21000000
   C     40.38000000    25.98000000     4.48000000
   C     40.76000000    25.15000000     3.26000000
   O     40.78000000    25.63000000     2.13000000
   C     39.10000000    25.53000000     5.18000000
   O     38.07000000    25.50000000     4.22000000
   H     39.47000000    27.55000000     3.52000000
   H     41.22000000    25.88000000     5.17000000
   H     38.89000000    26.18000000     6.03000000
   H     39.24000000    24.51000000     5.55000000
   H     37.93000000    26.42000000     3.98000000
   N     41.03000000    23.87000000     3.52000000
   C     41.62000000    23.03000000     2.50000000
   C     40.77000000    22.86000000     1.24000000
   O     41.27000000    22.98000000     0.13000000
   C     41.73000000    21.68000000     3.20000000
   H     40.89000000    23.52000000     4.46000000
   H     42.59000000    23.44000000     2.21000000
   H     40.81000000    21.31000000     3.66000000
   H     42.00000000    20.91000000     2.48000000
   H     42.51000000    21.69000000     3.96000000
   N     39.46000000    22.82000000     1.46000000
   C     38.59000000    22.78000000     0.30000000
   C     38.44000000    24.07000000    -0.50000000
   O     38.03000000    24.07000000    -1.65000000
   C     37.19000000    22.34000000     0.72000000
   H     39.05000000    22.83000000     2.38000000
   H     39.08000000    22.10000000    -0.39000000
   H     37.29000000    21.37000000     1.20000000
   H     36.83000000    23.12000000     1.40000000
   H     36.60000000    22.39000000    -0.20000000
   N     38.80000000    25.20000000     0.11000000
   C     38.74000000    26.52000000    -0.48000000
   C     40.02000000    26.88000000    -1.23000000
   O     39.94000000    27.57000000    -2.25000000
   C     38.50000000    27.52000000     0.64000000
   C     37.11000000    27.35000000     1.24000000
   C     36.89000000    28.36000000     2.35000000
   O     37.25000000    28.11000000     3.53000000
   O     36.41000000    29.48000000     2.06000000
   H     39.28000000    25.08000000     0.99000000
   H     37.84000000    26.64000000    -1.08000000
   H     38.65000000    28.52000000     0.23000000
   H     39.30000000    27.28000000     1.34000000
   H     36.95000000    26.37000000     1.69000000
   H     36.33000000    27.45000000     0.47000000
   N     41.17000000    26.39000000    -0.77000000
   C     42.47000000    26.40000000    -1.43000000
   H     43.22200000    25.99000000    -0.75600000
   H     42.42400000    25.79300000    -2.33400000
   H     42.73700000    27.42400000    -1.69200000
   H     41.13000000    26.03000000     0.17000000
  Ca     35.48000000    30.66000000     4.10000000
   O     34.04000000    28.16000000     5.05000000
   H     33.14000000    28.19000000     4.71000000
   H     34.24000000    27.23000000     5.13000000
   O     36.56000000    29.13000000     5.87000000
   H     36.15000000    28.52000000     6.49000000
   H     36.97000000    28.56000000     5.22000000

Ca 1.00



