%chk=loop2.apoCaM-CA-Ng.Init31.run100.water4.chk
%nprocshared=20
%mem=10GB
%nosave
#b3lyp/svp scf=(tight,noincore,xqc) Test 
#IOP(5/87=12) Density=Current Pop=(MK,readradii) iop(6/33=2) iop(6/42=6)

loop2.apoCaM-CA-Ng.Init31.run100.water4 

   -2  1 
   C     70.02000000    50.43000000    26.79000000
   C     69.27000000    49.16000000    26.41000000
   O     68.12000000    49.29000000    25.99000000
   H     70.95700000    50.47700000    26.23600000
   H     69.41000000    51.30000000    26.54600000
   H     70.23100000    50.42200000    27.85900000
   N     69.76000000    47.95000000    26.68000000
   C     71.17000000    47.62000000    26.65000000
   C     71.92000000    47.78000000    27.97000000
   O     73.10000000    48.10000000    27.97000000
   C     71.35000000    46.21000000    26.11000000
   C     70.33000000    45.23000000    26.66000000
   O     69.15000000    45.19000000    26.25000000
   O     70.67000000    44.40000000    27.53000000
   H     69.10000000    47.19000000    26.73000000
   H     71.56000000    48.33000000    25.92000000
   H     72.35000000    45.86000000    26.36000000
   H     71.21000000    46.27000000    25.03000000
   N     71.29000000    47.60000000    29.14000000
   C     71.86000000    47.76000000    30.47000000
   C     71.25000000    46.74000000    31.43000000
   O     71.11000000    47.08000000    32.60000000
   C     71.85000000    49.22000000    30.89000000
   H     70.31000000    47.39000000    29.12000000
   H     72.92000000    47.52000000    30.37000000
   H     72.35000000    49.88000000    30.18000000
   H     70.81000000    49.57000000    30.96000000
   H     72.50000000    49.23000000    31.76000000
   N     70.75000000    45.62000000    30.93000000
   C     69.67000000    44.91000000    31.59000000
   C     69.68000000    43.42000000    31.26000000
   O     69.56000000    42.99000000    30.12000000
   C     68.30000000    45.48000000    31.22000000
   C     68.10000000    46.03000000    29.82000000
   O     67.80000000    45.24000000    28.89000000
   O     68.26000000    47.26000000    29.68000000
   H     70.80000000    45.56000000    29.92000000
   H     69.84000000    45.09000000    32.65000000
   H     67.98000000    46.29000000    31.88000000
   H     67.61000000    44.65000000    31.32000000
   N     69.67000000    42.54000000    32.27000000
   C     69.67000000    41.10000000    32.16000000
   C     68.26000000    40.53000000    32.21000000
   O     67.70000000    40.41000000    33.30000000
   H     69.82000000    42.92000000    33.20000000
   H     70.17000000    40.70000000    33.04000000
   H     70.27000000    40.73000000    31.33000000
   N     67.68000000    40.07000000    31.10000000
   C     66.32000000    39.58000000    31.02000000
   C     66.17000000    38.07000000    31.14000000
   O     65.07000000    37.60000000    31.40000000
   C     65.62000000    40.13000000    29.78000000
   C     65.51000000    41.64000000    29.65000000
   N     64.50000000    42.34000000    30.18000000
   O     66.46000000    42.30000000    29.24000000
   H     68.22000000    40.22000000    30.26000000
   H     65.75000000    39.90000000    31.90000000
   H     64.61000000    39.71000000    29.78000000
   H     66.08000000    39.86000000    28.83000000
   H     63.71000000    41.80000000    30.52000000
   H     64.57000000    43.34000000    30.08000000
   N     67.27000000    37.33000000    30.96000000
   C     67.34000000    35.94000000    31.36000000
   C     68.79000000    35.51000000    31.58000000
   O     69.52000000    35.27000000    30.63000000
   H     68.14000000    37.82000000    30.80000000
   H     66.94000000    35.37000000    30.52000000
   H     66.68000000    35.79000000    32.21000000
   N     69.25000000    35.61000000    32.83000000
   C     68.75000000    36.26000000    34.03000000
   C     69.65000000    37.33000000    34.63000000
   O     69.24000000    38.42000000    34.99000000
   C     68.35000000    35.15000000    35.00000000
   C     68.18000000    35.50000000    36.48000000
   O     67.20000000    34.48000000    34.52000000
   H     70.14000000    35.13000000    32.89000000
   H     67.83000000    36.76000000    33.73000000
   H     69.07000000    34.35000000    35.10000000
   H     66.95000000    33.82000000    35.17000000
   H     69.18000000    35.71000000    36.87000000
   H     67.55000000    36.39000000    36.54000000
   H     67.76000000    34.72000000    37.11000000
   N     70.98000000    37.17000000    34.62000000
   C     71.99000000    37.95000000    35.31000000
   C     71.69000000    37.79000000    36.79000000
   O     70.92000000    38.59000000    37.33000000
   C     72.29000000    39.40000000    34.92000000
   C     72.63000000    39.57000000    33.45000000
   C     73.33000000    39.96000000    35.88000000
   C     73.77000000    38.69000000    32.96000000
   H     71.38000000    36.49000000    33.99000000
   H     72.94000000    37.45000000    35.11000000
   H     71.37000000    39.97000000    35.02000000
   H     72.93000000    40.60000000    33.25000000
   H     71.76000000    39.31000000    32.84000000
   H     73.05000000    40.14000000    36.92000000
   H     74.31000000    39.47000000    35.83000000
   H     73.42000000    41.00000000    35.56000000
   H     73.57000000    37.62000000    33.06000000
   H     73.93000000    38.86000000    31.89000000
   H     74.74000000    38.89000000    33.41000000
   N     72.19000000    36.72000000    37.40000000
   C     73.27000000    35.88000000    36.90000000
   C     74.65000000    36.49000000    37.12000000
   O     75.13000000    36.99000000    36.10000000
   C     73.24000000    34.53000000    37.61000000
   C     73.06000000    34.43000000    39.12000000
   O     72.69000000    35.40000000    39.83000000
   O     73.25000000    33.30000000    39.62000000
   H     71.83000000    36.50000000    38.32000000
   H     73.06000000    35.62000000    35.87000000
   H     74.11000000    33.91000000    37.39000000
   H     72.36000000    34.06000000    37.19000000
   N     75.06000000    36.65000000    38.38000000
   C     76.26000000    37.40000000    38.69000000
   C     77.05000000    36.63000000    39.74000000
   O     76.53000000    35.75000000    40.43000000
   C     75.89000000    38.85000000    38.99000000
   C     75.24000000    39.13000000    40.32000000
   C     75.82000000    39.97000000    41.28000000
   C     74.00000000    38.60000000    40.68000000
   C     75.26000000    40.07000000    42.56000000
   C     73.34000000    38.82000000    41.90000000
   C     73.97000000    39.63000000    42.84000000
   H     74.57000000    36.25000000    39.17000000
   H     76.85000000    37.42000000    37.78000000
   H     75.19000000    39.20000000    38.23000000
   H     76.72000000    39.56000000    38.97000000
   H     76.75000000    40.43000000    40.98000000
   H     73.55000000    37.96000000    39.93000000
   H     75.72000000    40.68000000    43.32000000
   H     72.37000000    38.35000000    42.01000000
   H     73.56000000    39.85000000    43.82000000
   N     78.31000000    36.97000000    40.01000000
   C     79.30000000    37.69000000    39.24000000
   C     79.42000000    37.32000000    37.77000000
   O     79.05000000    36.23000000    37.33000000
   C     80.64000000    37.54000000    39.95000000
   C     80.46000000    36.18000000    40.63000000
   C     79.01000000    36.30000000    41.09000000
   H     79.10000000    38.76000000    39.30000000
   H     81.51000000    37.48000000    39.29000000
   H     80.80000000    38.29000000    40.72000000
   H     80.60000000    35.36000000    39.92000000
   H     81.07000000    36.09000000    41.53000000
   H     78.57000000    35.30000000    41.18000000
   H     78.81000000    36.83000000    42.02000000
   N     80.07000000    38.15000000    36.96000000
   C     80.17000000    38.11000000    35.51000000
   C     80.63000000    39.49000000    35.06000000
   O     81.79000000    39.64000000    34.69000000
   C     81.10000000    37.04000000    34.94000000
   C     81.08000000    36.96000000    33.41000000
   C     82.30000000    36.26000000    32.84000000
   O     83.35000000    36.88000000    32.56000000
   O     82.16000000    35.06000000    32.53000000
   H     80.55000000    38.93000000    37.38000000
   H     79.21000000    38.10000000    35.01000000
   H     80.74000000    36.11000000    35.38000000
   H     82.12000000    37.26000000    35.26000000
   H     81.05000000    37.96000000    33.00000000
   H     80.13000000    36.47000000    33.16000000
   N     79.82000000    40.55000000    35.13000000
   C     78.58000000    40.74000000    35.85000000
   H     77.78400000    40.18400000    35.35400000
   H     78.69300000    40.37800000    36.87200000
   H     78.32700000    41.80000000    35.86600000
   H     80.13000000    41.33000000    34.57000000
  Ca     68.41000000    42.98000000    27.63000000
   O     69.25000000    40.57000000    28.14000000
   H     68.74000000    39.88000000    27.72000000
   H     70.11000000    40.18000000    28.28000000
   O     70.21000000    42.12000000    25.85000000
   H     70.82000000    41.39000000    25.93000000
   H     70.16000000    42.29000000    24.90000000
   O     65.97000000    43.85000000    26.72000000
   H     65.49000000    44.51000000    26.22000000
   H     65.44000000    43.06000000    26.62000000
   O     67.14000000    40.92000000    26.38000000
   H     66.56000000    40.25000000    26.73000000
   H     67.47000000    40.55000000    25.56000000

Ca 1.00



