%chk=loop4.apoCaM-CA-Ng.Init293.run9.water3.chk
%nprocshared=20
%mem=10GB
%nosave
#b3lyp/svp scf=(tight,noincore,xqc) Test 
#IOP(5/87=12) Density=Current Pop=(MK,readradii) iop(6/33=2) iop(6/42=6)

loop4.apoCaM-CA-Ng.Init293.run9.water3 

   -3  1 
   C     42.68000000    53.13000000    43.46000000
   C     43.31000000    54.49000000    43.73000000
   O     44.26000000    54.65000000    44.50000000
   H     41.73100000    53.26600000    42.94200000
   H     43.35000000    52.53500000    42.83900000
   H     42.50700000    52.61500000    44.40500000
   N     42.90000000    55.54000000    43.02000000
   C     43.22000000    56.95000000    43.10000000
   C     44.66000000    57.33000000    42.76000000
   O     45.65000000    56.78000000    43.24000000
   C     42.71000000    57.73000000    44.30000000
   C     43.23000000    57.30000000    45.67000000
   O     42.42000000    57.18000000    46.62000000
   O     44.46000000    57.30000000    45.90000000
   H     42.19000000    55.37000000    42.32000000
   H     42.62000000    57.39000000    42.30000000
   H     41.63000000    57.56000000    44.33000000
   H     42.94000000    58.80000000    44.25000000
   N     44.77000000    58.29000000    41.84000000
   C     45.90000000    59.12000000    41.47000000
   C     46.53000000    59.88000000    42.63000000
   O     47.47000000    60.64000000    42.37000000
   C     46.94000000    58.48000000    40.56000000
   C     46.18000000    57.87000000    39.39000000
   C     47.90000000    57.44000000    41.14000000
   C     47.01000000    57.50000000    38.16000000
   H     43.95000000    58.52000000    41.30000000
   H     45.52000000    60.04000000    41.02000000
   H     47.56000000    59.27000000    40.15000000
   H     45.54000000    58.70000000    39.09000000
   H     45.77000000    56.94000000    39.77000000
   H     48.71000000    57.23000000    40.43000000
   H     48.26000000    57.81000000    42.10000000
   H     47.40000000    56.51000000    41.39000000
   H     48.02000000    57.14000000    38.35000000
   H     46.49000000    56.72000000    37.60000000
   H     47.07000000    58.45000000    37.63000000
   N     46.10000000    59.76000000    43.89000000
   C     46.70000000    60.39000000    45.05000000
   C     47.67000000    59.41000000    45.70000000
   O     47.38000000    58.22000000    45.78000000
   C     45.58000000    60.89000000    45.95000000
   C     44.60000000    61.88000000    45.32000000
   O     44.99000000    62.80000000    44.58000000
   O     43.41000000    61.77000000    45.70000000
   H     45.36000000    59.10000000    44.06000000
   H     47.20000000    61.24000000    44.60000000
   H     45.87000000    61.40000000    46.87000000
   H     45.09000000    60.01000000    46.35000000
   N     48.86000000    59.82000000    46.14000000
   C     49.60000000    61.05000000    45.93000000
   C     50.81000000    61.17000000    46.85000000
   O     51.28000000    60.22000000    47.47000000
   H     49.34000000    59.09000000    46.66000000
   H     48.89000000    61.81000000    46.24000000
   H     50.02000000    61.15000000    44.93000000
   N     51.42000000    62.35000000    46.99000000
   C     50.96000000    63.61000000    46.44000000
   C     51.22000000    63.78000000    44.95000000
   O     50.49000000    64.55000000    44.33000000
   C     51.58000000    64.80000000    47.18000000
   C     53.07000000    65.02000000    47.02000000
   O     53.78000000    64.82000000    48.03000000
   O     53.49000000    65.45000000    45.92000000
   H     52.25000000    62.42000000    47.56000000
   H     49.89000000    63.71000000    46.61000000
   H     51.26000000    64.61000000    48.20000000
   H     51.06000000    65.72000000    46.89000000
   N     52.14000000    63.15000000    44.21000000
   C     53.24000000    62.29000000    44.58000000
   C     53.87000000    61.75000000    43.30000000
   O     53.54000000    62.07000000    42.16000000
   H     51.93000000    63.16000000    43.23000000
   H     52.93000000    61.43000000    45.18000000
   H     54.05000000    62.81000000    45.10000000
   N     54.85000000    60.86000000    43.45000000
   C     55.65000000    60.20000000    42.43000000
   C     54.79000000    59.19000000    41.69000000
   O     54.75000000    59.25000000    40.46000000
   C     56.89000000    59.50000000    42.98000000
   C     58.00000000    59.12000000    42.01000000
   C     58.92000000    58.09000000    42.65000000
   N     59.89000000    57.71000000    41.81000000
   O     58.87000000    57.75000000    43.83000000
   H     55.10000000    60.54000000    44.37000000
   H     55.95000000    60.99000000    41.74000000
   H     56.64000000    58.56000000    43.48000000
   H     57.28000000    60.14000000    43.77000000
   H     58.57000000    60.05000000    41.97000000
   H     57.62000000    58.69000000    41.09000000
   H     59.96000000    58.10000000    40.88000000
   H     60.61000000    57.09000000    42.15000000
   N     54.03000000    58.41000000    42.45000000
   C     53.06000000    57.43000000    41.99000000
   C     53.49000000    56.02000000    42.36000000
   O     54.44000000    55.82000000    43.12000000
   C     51.62000000    57.75000000    42.36000000
   C     51.28000000    59.24000000    42.31000000
   C     51.28000000    57.44000000    43.82000000
   H     54.22000000    58.29000000    43.44000000
   H     53.05000000    57.40000000    40.90000000
   H     50.91000000    57.23000000    41.73000000
   H     51.07000000    59.41000000    41.25000000
   H     50.31000000    59.44000000    42.78000000
   H     52.05000000    59.93000000    42.66000000
   H     51.87000000    56.63000000    44.24000000
   H     51.56000000    58.24000000    44.50000000
   H     50.22000000    57.19000000    43.86000000
   N     52.89000000    55.03000000    41.70000000
   C     53.36000000    53.69000000    41.41000000
   C     53.57000000    52.75000000    42.58000000
   O     53.06000000    51.63000000    42.56000000
   C     54.64000000    53.68000000    40.56000000
   C     55.22000000    52.29000000    40.32000000
   N     54.73000000    51.70000000    39.23000000
   O     56.08000000    51.75000000    41.01000000
   H     52.27000000    55.41000000    41.01000000
   H     52.50000000    53.28000000    40.88000000
   H     55.31000000    54.24000000    41.20000000
   H     54.43000000    54.17000000    39.61000000
   H     54.26000000    52.24000000    38.52000000
   H     55.11000000    50.78000000    39.03000000
   N     54.39000000    53.11000000    43.56000000
   C     54.73000000    52.39000000    44.77000000
   C     53.52000000    51.93000000    45.58000000
   O     52.74000000    52.70000000    46.13000000
   C     55.62000000    53.26000000    45.65000000
   C     56.96000000    53.39000000    44.96000000
   C     57.30000000    54.58000000    44.31000000
   C     57.75000000    52.23000000    44.88000000
   C     58.49000000    54.58000000    43.58000000
   C     58.93000000    52.21000000    44.12000000
   C     59.28000000    53.41000000    43.48000000
   O     60.33000000    53.46000000    42.62000000
   H     54.92000000    53.97000000    43.49000000
   H     55.31000000    51.51000000    44.49000000
   H     55.75000000    52.77000000    46.61000000
   H     55.16000000    54.24000000    45.79000000
   H     56.59000000    55.39000000    44.29000000
   H     57.45000000    51.35000000    45.44000000
   H     58.87000000    55.49000000    43.14000000
   H     59.60000000    51.37000000    44.09000000
   H     60.98000000    52.79000000    42.85000000
   N     53.31000000    50.62000000    45.48000000
   C     52.19000000    49.93000000    46.09000000
   C     50.84000000    50.36000000    45.54000000
   O     49.89000000    50.31000000    46.32000000
   C     52.36000000    49.81000000    47.61000000
   C     53.76000000    49.79000000    48.23000000
   C     53.67000000    49.71000000    49.74000000
   O     53.03000000    48.78000000    50.29000000
   O     54.42000000    50.51000000    50.34000000
   H     54.07000000    50.00000000    45.23000000
   H     52.28000000    48.89000000    45.76000000
   H     51.72000000    48.98000000    47.89000000
   H     51.90000000    50.71000000    48.01000000
   H     54.27000000    50.73000000    48.01000000
   H     54.43000000    49.03000000    47.83000000
   N     50.76000000    50.87000000    44.31000000
   C     49.48000000    51.16000000    43.69000000
   C     48.80000000    49.92000000    43.13000000
   O     47.75000000    50.02000000    42.50000000
   C     49.53000000    52.27000000    42.65000000
   C     49.84000000    53.62000000    43.29000000
   C     48.72000000    54.16000000    44.18000000
   O     47.52000000    53.93000000    43.93000000
   O     48.93000000    54.89000000    45.17000000
   H     51.57000000    51.03000000    43.74000000
   H     48.85000000    51.56000000    44.49000000
   H     48.59000000    52.23000000    42.10000000
   H     50.39000000    51.98000000    42.04000000
   H     50.03000000    54.33000000    42.48000000
   H     50.79000000    53.60000000    43.82000000
   N     49.37000000    48.72000000    43.23000000
   C     48.97000000    47.49000000    42.58000000
   H     48.05800000    47.66200000    42.00800000
   H     49.76200000    47.15900000    41.90900000
   H     48.78700000    46.72300000    43.33300000
   H     50.26000000    48.64000000    43.69000000
  Ca     46.35000000    55.70000000    45.66000000
   O     46.66000000    53.29000000    46.69000000
   H     46.51000000    52.48000000    46.20000000
   H     47.39000000    53.08000000    47.28000000
   O     44.68000000    55.21000000    47.65000000
   H     44.52000000    54.30000000    47.91000000
   H     43.84000000    55.65000000    47.79000000
   O     47.93000000    56.19000000    47.91000000
   H     48.54000000    56.83000000    47.55000000
   H     48.40000000    55.81000000    48.66000000

Ca 1.00



