%chk=loop3.holoCaM-CaMKII.run90.water3.chk
%nprocshared=20
%mem=10GB
%nosave
#b3lyp/svp scf=(tight,noincore,xqc) Test 
#IOP(5/87=12) Density=Current Pop=(MK,readradii) iop(6/33=2) iop(6/42=6)

loop3.holoCaM-CaMKII.run90.water3 

   0  1 
   C     49.24000000    27.84000000    -0.44500000
   C     48.24000000    27.88000000     0.70500000
   O     47.39000000    27.00000000     0.80500000
   H     50.18600000    27.43100000    -0.08900000
   H     48.85000000    27.21000000    -1.24500000
   H     49.40100000    28.85000000    -0.82300000
   N     48.30000000    28.93000000     1.52500000
   C     47.43000000    29.28000000     2.63500000
   C     46.10000000    29.74000000     2.05500000
   O     45.90000000    30.91000000     1.73500000
   C     48.02000000    30.35000000     3.55500000
   C     47.16000000    30.70000000     4.75500000
   O     47.45000000    31.68000000     5.47500000
   O     46.25000000    29.90000000     5.05500000
   H     49.06000000    29.57000000     1.32500000
   H     47.27000000    28.44000000     3.30500000
   H     48.12000000    31.30000000     3.02500000
   H     49.05000000    30.16000000     3.84500000
   N     45.12000000    28.84000000     1.91500000
   C     44.00000000    29.05000000     1.02500000
   C     42.74000000    29.63000000     1.65500000
   O     42.03000000    30.39000000     0.99500000
   C     43.67000000    27.73000000     0.33500000
   C     43.06000000    26.69000000     1.27500000
   C     43.11000000    25.27000000     0.70500000
   C     42.66000000    24.14000000     1.62500000
   N     41.25000000    23.76000000     1.44500000
   H     45.30000000    27.91000000     2.27500000
   H     44.26000000    29.75000000     0.23500000
   H     44.56000000    27.37000000    -0.18500000
   H     42.90000000    27.96000000    -0.40500000
   H     42.06000000    26.83000000     1.69500000
   H     43.82000000    26.71000000     2.05500000
   H     44.12000000    25.05000000     0.36500000
   H     42.39000000    25.28000000    -0.10500000
   H     42.83000000    24.44000000     2.66500000
   H     43.34000000    23.30000000     1.53500000
   H     41.02000000    22.94000000     1.99500000
   H     40.58000000    24.49000000     1.62500000
   H     41.12000000    23.61000000     0.45500000
   N     42.52000000    29.35000000     2.93500000
   C     41.55000000    30.06000000     3.74500000
   C     42.09000000    31.36000000     4.33500000
   O     41.31000000    32.21000000     4.74500000
   C     40.95000000    29.13000000     4.79500000
   C     41.95000000    28.23000000     5.50500000
   O     43.11000000    28.64000000     5.68500000
   O     41.57000000    27.08000000     5.82500000
   H     43.14000000    28.72000000     3.42500000
   H     40.79000000    30.33000000     3.01500000
   H     40.23000000    28.51000000     4.26500000
   H     40.43000000    29.72000000     5.55500000
   N     43.42000000    31.49000000     4.39500000
   C     44.16000000    32.64000000     4.85500000
   C     44.09000000    33.04000000     6.32500000
   O     43.20000000    33.76000000     6.75500000
   H     43.94000000    30.70000000     4.01500000
   H     43.89000000    33.48000000     4.21500000
   H     45.19000000    32.44000000     4.56500000
   N     45.03000000    32.55000000     7.13500000
   C     45.19000000    33.01000000     8.49500000
   C     46.65000000    33.24000000     8.87500000
   O     46.89000000    33.26000000    10.08500000
   C     44.48000000    31.96000000     9.33500000
   C     45.13000000    30.58000000     9.38500000
   N     45.61000000    30.11000000    10.53500000
   O     45.37000000    29.85000000     8.42500000
   H     45.75000000    31.92000000     6.78500000
   H     44.72000000    33.99000000     8.58500000
   H     43.45000000    31.85000000     8.97500000
   H     44.50000000    32.29000000    10.37500000
   H     45.73000000    30.70000000    11.35500000
   H     46.03000000    29.20000000    10.60500000
   N     47.61000000    33.35000000     7.96500000
   C     49.02000000    33.31000000     8.31500000
   C     49.73000000    31.98000000     8.45500000
   O     50.93000000    32.01000000     8.73500000
   H     47.38000000    33.24000000     6.98500000
   H     49.20000000    33.84000000     9.25500000
   H     49.66000000    33.83000000     7.59500000
   N     49.06000000    30.87000000     8.13500000
   C     49.58000000    29.53000000     8.33500000
   C     49.22000000    28.44000000     7.32500000
   O     48.06000000    28.30000000     6.94500000
   C     49.22000000    29.00000000     9.72500000
   C     49.89000000    29.67000000    10.90500000
   C     51.14000000    29.24000000    11.39500000
   C     49.17000000    30.66000000    11.57500000
   C     51.68000000    29.87000000    12.52500000
   C     49.69000000    31.26000000    12.73500000
   C     50.97000000    30.89000000    13.17500000
   O     51.62000000    31.44000000    14.24500000
   H     48.17000000    31.00000000     7.67500000
   H     50.65000000    29.60000000     8.18500000
   H     49.43000000    27.93000000     9.71500000
   H     48.15000000    29.12000000     9.84500000
   H     51.53000000    28.30000000    11.04500000
   H     48.18000000    30.96000000    11.26500000
   H     52.66000000    29.61000000    12.88500000
   H     49.14000000    32.03000000    13.26500000
   H     52.55000000    31.20000000    14.30500000
   N     50.19000000    27.63000000     6.91500000
   C     49.99000000    26.49000000     6.03500000
   C     49.94000000    25.21000000     6.85500000
   O     50.82000000    25.09000000     7.70500000
   C     51.03000000    26.52000000     4.92500000
   C     50.95000000    27.68000000     3.93500000
   C     50.98000000    25.26000000     4.07500000
   C     52.14000000    27.95000000     3.02500000
   H     51.12000000    27.78000000     7.27500000
   H     49.03000000    26.60000000     5.53500000
   H     52.04000000    26.67000000     5.31500000
   H     50.79000000    28.61000000     4.48500000
   H     50.11000000    27.36000000     3.31500000
   H     51.79000000    25.13000000     3.35500000
   H     51.02000000    24.31000000     4.60500000
   H     50.08000000    25.23000000     3.46500000
   H     51.94000000    28.67000000     2.22500000
   H     52.89000000    28.43000000     3.64500000
   H     52.62000000    27.03000000     2.67500000
   N     48.98000000    24.32000000     6.58500000
   C     48.88000000    22.96000000     7.09500000
   C     49.24000000    21.88000000     6.08500000
   O     49.46000000    22.15000000     4.91500000
   C     47.47000000    22.77000000     7.63500000
   O     46.40000000    23.26000000     6.86500000
   H     48.35000000    24.66000000     5.87500000
   H     49.53000000    22.81000000     7.95500000
   H     47.47000000    23.31000000     8.57500000
   H     47.20000000    21.72000000     7.79500000
   H     46.63000000    24.16000000     6.59500000
   N     49.35000000    20.63000000     6.53500000
   C     49.72000000    19.56000000     5.62500000
   C     48.64000000    19.10000000     4.65500000
   O     48.97000000    18.67000000     3.55500000
   C     50.23000000    18.41000000     6.50500000
   H     49.30000000    20.49000000     7.53500000
   H     50.58000000    19.96000000     5.09500000
   H     50.66000000    17.61000000     5.91500000
   H     50.94000000    18.81000000     7.22500000
   H     49.43000000    18.01000000     7.13500000
   N     47.37000000    19.45000000     4.88500000
   C     46.40000000    19.48000000     3.80500000
   C     46.61000000    20.60000000     2.80500000
   O     46.38000000    20.33000000     1.62500000
   C     45.01000000    19.69000000     4.38500000
   H     47.15000000    19.88000000     5.77500000
   H     46.43000000    18.53000000     3.28500000
   H     44.31000000    19.60000000     3.54500000
   H     44.78000000    18.88000000     5.08500000
   H     44.94000000    20.72000000     4.74500000
   N     47.05000000    21.81000000     3.17500000
   C     47.25000000    22.94000000     2.29500000
   C     48.51000000    22.85000000     1.45500000
   O     48.45000000    23.23000000     0.28500000
   C     47.22000000    24.24000000     3.10500000
   C     45.81000000    24.59000000     3.58500000
   C     46.01000000    25.76000000     4.53500000
   O     46.63000000    25.61000000     5.61500000
   O     45.40000000    26.83000000     4.32500000
   H     47.48000000    21.88000000     4.08500000
   H     46.47000000    22.93000000     1.53500000
   H     47.53000000    25.12000000     2.54500000
   H     48.02000000    24.21000000     3.84500000
   H     45.48000000    23.74000000     4.17500000
   H     45.18000000    24.73000000     2.70500000
   N     49.53000000    22.20000000     2.01500000
   C     50.77000000    21.82000000     1.35500000
   H     51.56800000    21.75100000     2.09400000
   H     50.64200000    20.85300000     0.86800000
   H     51.03000000    22.57100000     0.60900000
   H     49.46000000    22.13000000     3.02500000
  Ca     45.35000000    27.89000000     6.68000000
   O     43.79000000    25.71000000     6.46000000
   H     43.50000000    24.80000000     6.51000000
   H     43.03000000    26.18000000     6.10000000
   O     43.62000000    27.66000000     8.62000000
   H     43.25000000    28.35000000     9.18000000
   H     42.94000000    26.99000000     8.58000000
   O     46.11000000    26.33000000     8.82000000
   H     46.97000000    26.37000000     9.25000000
   H     45.55000000    25.90000000     9.47000000

Ca 1.00



