%chk=loop2.holoCaM.run30.water1.chk
%nprocshared=20
%mem=10GB
%nosave
#b3lyp/svp scf=(tight,noincore,xqc) Test 
#IOP(5/87=12) Density=Current Pop=(MK,readradii) iop(6/33=2) iop(6/42=6)

loop2.holoCaM.run30.water1 

   -2  1 
   C     56.71000000    67.49000000   113.73000000
   C     57.45000000    68.10000000   114.90000000
   O     58.68000000    67.97000000   114.89000000
   H     55.80500000    68.06500000   113.53400000
   H     57.34900000    67.50600000   112.84700000
   H     56.44200000    66.46000000   113.96600000
   N     56.78000000    68.65000000   115.91000000
   C     57.34000000    69.15000000   117.16000000
   C     57.68000000    68.01000000   118.10000000
   O     56.83000000    67.55000000   118.86000000
   C     56.21000000    70.06000000   117.63000000
   C     56.66000000    70.83000000   118.86000000
   O     57.79000000    70.64000000   119.38000000
   O     55.97000000    71.78000000   119.28000000
   H     55.83000000    68.87000000   115.67000000
   H     58.24000000    69.75000000   117.00000000
   H     55.36000000    69.43000000   117.90000000
   H     56.08000000    70.80000000   116.85000000
   N     58.98000000    67.74000000   118.27000000
   C     59.53000000    66.74000000   119.16000000
   C     59.28000000    67.00000000   120.64000000
   O     59.32000000    66.08000000   121.45000000
   C     61.03000000    66.69000000   118.86000000
   H     59.65000000    68.20000000   117.67000000
   H     59.21000000    65.74000000   118.86000000
   H     61.17000000    66.49000000   117.80000000
   H     61.54000000    67.61000000   119.12000000
   H     61.46000000    65.95000000   119.54000000
   N     59.08000000    68.25000000   121.05000000
   C     58.93000000    68.71000000   122.42000000
   C     57.46000000    68.66000000   122.82000000
   O     57.18000000    68.46000000   124.00000000
   C     59.47000000    70.10000000   122.73000000
   C     60.83000000    70.36000000   122.09000000
   O     60.87000000    71.18000000   121.15000000
   O     61.85000000    69.73000000   122.45000000
   H     59.04000000    68.97000000   120.34000000
   H     59.50000000    67.99000000   123.01000000
   H     59.55000000    70.30000000   123.79000000
   H     58.78000000    70.84000000   122.32000000
   N     56.61000000    68.90000000   121.83000000
   C     55.23000000    69.24000000   122.15000000
   C     55.02000000    70.64000000   122.69000000
   O     54.07000000    70.90000000   123.43000000
   H     56.99000000    69.02000000   120.90000000
   H     54.87000000    68.50000000   122.86000000
   H     54.68000000    69.21000000   121.21000000
   N     55.94000000    71.58000000   122.45000000
   C     56.03000000    72.90000000   123.03000000
   C     55.08000000    73.86000000   122.31000000
   O     54.48000000    74.69000000   122.98000000
   C     57.49000000    73.36000000   122.96000000
   C     57.95000000    73.90000000   121.62000000
   N     57.92000000    75.23000000   121.42000000
   O     58.23000000    73.15000000   120.68000000
   H     56.68000000    71.42000000   121.78000000
   H     55.87000000    72.94000000   124.11000000
   H     58.15000000    72.56000000   123.31000000
   H     57.65000000    74.14000000   123.70000000
   H     57.64000000    75.77000000   122.22000000
   H     58.02000000    75.59000000   120.48000000
   N     54.82000000    73.66000000   121.02000000
   C     53.98000000    74.47000000   120.17000000
   C     54.71000000    75.29000000   119.11000000
   O     54.02000000    76.11000000   118.51000000
   H     55.25000000    72.85000000   120.60000000
   H     53.34000000    75.09000000   120.80000000
   H     53.29000000    73.76000000   119.71000000
   N     55.99000000    75.04000000   118.82000000
   C     56.81000000    75.65000000   117.79000000
   C     57.84000000    74.72000000   117.17000000
   O     58.19000000    73.70000000   117.76000000
   C     57.46000000    76.95000000   118.25000000
   C     56.49000000    77.97000000   118.84000000
   O     58.56000000    76.72000000   119.10000000
   H     56.41000000    74.23000000   119.26000000
   H     56.18000000    75.86000000   116.93000000
   H     57.80000000    77.40000000   117.31000000
   H     58.85000000    77.61000000   119.29000000
   H     56.27000000    77.68000000   119.87000000
   H     57.08000000    78.88000000   118.83000000
   H     55.54000000    78.08000000   118.32000000
   N     58.38000000    75.22000000   116.05000000
   C     59.21000000    74.44000000   115.16000000
   C     60.65000000    74.89000000   115.38000000
   O     60.96000000    76.06000000   115.22000000
   C     58.78000000    74.68000000   113.72000000
   C     57.34000000    74.24000000   113.46000000
   C     59.70000000    74.06000000   112.68000000
   C     56.87000000    74.39000000   112.01000000
   H     58.01000000    76.11000000   115.76000000
   H     59.16000000    73.37000000   115.35000000
   H     58.72000000    75.74000000   113.43000000
   H     56.69000000    74.71000000   114.20000000
   H     57.35000000    73.17000000   113.66000000
   H     59.51000000    74.52000000   111.71000000
   H     60.71000000    74.36000000   112.97000000
   H     59.73000000    72.97000000   112.72000000
   H     57.04000000    75.40000000   111.62000000
   H     57.44000000    73.57000000   111.58000000
   H     55.83000000    74.09000000   111.97000000
   N     61.56000000    73.95000000   115.67000000
   C     62.99000000    74.13000000   115.51000000
   C     63.48000000    73.73000000   114.13000000
   O     62.69000000    73.20000000   113.36000000
   C     63.66000000    73.28000000   116.58000000
   C     63.07000000    73.42000000   117.97000000
   O     62.35000000    72.50000000   118.43000000
   O     63.28000000    74.49000000   118.58000000
   H     61.27000000    72.99000000   115.77000000
   H     63.22000000    75.17000000   115.75000000
   H     64.73000000    73.46000000   116.62000000
   H     63.52000000    72.22000000   116.35000000
   N     64.72000000    73.98000000   113.69000000
   C     65.11000000    73.73000000   112.32000000
   C     64.98000000    72.23000000   112.07000000
   O     64.54000000    71.89000000   110.98000000
   C     66.53000000    74.21000000   112.04000000
   C     66.98000000    73.90000000   110.63000000
   C     66.56000000    74.63000000   109.51000000
   C     67.72000000    72.74000000   110.38000000
   C     66.84000000    74.21000000   108.20000000
   C     68.10000000    72.34000000   109.09000000
   C     67.65000000    73.09000000   107.99000000
   H     65.36000000    74.42000000   114.34000000
   H     64.35000000    74.26000000   111.75000000
   H     67.14000000    73.85000000   112.87000000
   H     66.53000000    75.30000000   112.12000000
   H     65.84000000    75.42000000   109.67000000
   H     68.04000000    72.17000000   111.24000000
   H     66.43000000    74.72000000   107.34000000
   H     68.80000000    71.52000000   108.98000000
   H     67.97000000    72.87000000   106.99000000
   N     65.30000000    71.26000000   112.92000000
   C     65.16000000    69.85000000   112.60000000
   C     63.76000000    69.27000000   112.48000000
   O     63.60000000    68.25000000   111.82000000
   C     65.89000000    69.13000000   113.74000000
   C     66.93000000    70.12000000   114.26000000
   C     66.10000000    71.40000000   114.13000000
   H     65.75000000    69.57000000   111.73000000
   H     65.20000000    68.80000000   114.51000000
   H     66.34000000    68.26000000   113.26000000
   H     67.33000000    69.96000000   115.25000000
   H     67.75000000    70.10000000   113.54000000
   H     65.38000000    71.45000000   114.94000000
   H     66.72000000    72.28000000   113.97000000
   N     62.76000000    70.05000000   112.90000000
   C     61.36000000    69.71000000   112.76000000
   C     60.81000000    70.34000000   111.49000000
   O     60.05000000    69.65000000   110.80000000
   C     60.65000000    70.30000000   113.98000000
   C     61.18000000    69.93000000   115.36000000
   C     60.49000000    70.56000000   116.56000000
   O     60.27000000    71.79000000   116.56000000
   O     60.41000000    69.99000000   117.67000000
   H     63.00000000    70.94000000   113.33000000
   H     61.18000000    68.64000000   112.76000000
   H     59.61000000    69.99000000   113.94000000
   H     60.67000000    71.39000000   113.90000000
   H     62.23000000    70.23000000   115.35000000
   H     61.22000000    68.86000000   115.58000000
   N     61.30000000    71.51000000   111.08000000
   C     61.14000000    71.99000000   109.72000000
   H     60.49400000    72.86800000   109.71900000
   H     62.11500000    72.25700000   109.31100000
   H     60.69100000    71.20800000   109.10800000
   H     61.79000000    72.06000000   111.77000000
  Ca     59.86000000    72.18000000   119.01400000
   O     61.06000000    74.32000000   120.26400000
   H     61.27000000    74.47000000   121.18400000
   H     61.87000000    74.52000000   119.79400000

Ca 1.00



