%chk=loop3.apoCaM-CA-Ng.Init295.run100.water5.chk
%nprocshared=20
%mem=10GB
%nosave
#b3lyp/svp scf=(tight,noincore,xqc) Test 
#IOP(5/87=12) Density=Current Pop=(MK,readradii) iop(6/33=2) iop(6/42=6)

loop3.apoCaM-CA-Ng.Init295.run100.water5 

   0  1 
   C     -0.02000000    90.16000000    74.11000000
   C     -0.11000000    88.67000000    74.44000000
   O     -0.18000000    87.87000000    73.51000000
   H      0.97100000    90.38500000    73.71700000
   H     -0.77200000    90.41300000    73.36300000
   H     -0.19300000    90.74400000    75.01400000
   N     -0.14000000    88.27000000    75.71000000
   C      0.10000000    86.90000000    76.13000000
   C     -1.15000000    86.32000000    76.79000000
   O     -1.86000000    86.95000000    77.56000000
   C      1.17000000    86.64000000    77.19000000
   C      1.41000000    85.16000000    77.46000000
   O      2.29000000    84.52000000    76.85000000
   O      0.74000000    84.52000000    78.30000000
   H     -0.21000000    88.95000000    76.44000000
   H      0.26000000    86.32000000    75.22000000
   H      0.93000000    87.16000000    78.11000000
   H      2.06000000    87.13000000    76.80000000
   N     -1.54000000    85.14000000    76.30000000
   C     -2.77000000    84.46000000    76.66000000
   C     -2.89000000    83.96000000    78.09000000
   O     -3.95000000    83.42000000    78.42000000
   C     -2.89000000    83.28000000    75.70000000
   C     -1.79000000    82.22000000    75.80000000
   C     -2.20000000    81.02000000    74.95000000
   C     -1.13000000    79.94000000    75.00000000
   N     -1.42000000    78.85000000    74.05000000
   H     -0.92000000    84.62000000    75.71000000
   H     -3.59000000    85.16000000    76.46000000
   H     -3.01000000    83.71000000    74.71000000
   H     -3.85000000    82.78000000    75.83000000
   H     -1.67000000    81.80000000    76.80000000
   H     -0.79000000    82.47000000    75.46000000
   H     -2.39000000    81.41000000    73.94000000
   H     -3.15000000    80.73000000    75.39000000
   H     -1.00000000    79.48000000    75.97000000
   H     -0.13000000    80.32000000    74.80000000
   H     -0.66000000    78.24000000    73.82000000
   H     -2.23000000    78.32000000    74.34000000
   H     -1.70000000    79.27000000    73.18000000
   N     -1.93000000    84.12000000    79.00000000
   C     -2.06000000    83.75000000    80.40000000
   C     -1.31000000    84.73000000    81.29000000
   O     -1.78000000    85.02000000    82.39000000
   C     -1.60000000    82.31000000    80.57000000
   C     -0.23000000    82.00000000    79.99000000
   O     -0.13000000    81.41000000    78.90000000
   O      0.83000000    82.29000000    80.60000000
   H     -1.04000000    84.49000000    78.70000000
   H     -3.09000000    83.88000000    80.75000000
   H     -2.26000000    81.58000000    80.11000000
   H     -1.44000000    82.09000000    81.63000000
   N     -0.18000000    85.28000000    80.85000000
   C      0.60000000    86.29000000    81.53000000
   C      1.69000000    85.85000000    82.51000000
   O      2.61000000    86.63000000    82.72000000
   H      0.20000000    84.99000000    79.95000000
   H     -0.07000000    86.83000000    82.19000000
   H      1.04000000    87.03000000    80.86000000
   N      1.62000000    84.58000000    82.92000000
   C      2.64000000    84.03000000    83.79000000
   C      4.08000000    84.21000000    83.33000000
   O      4.48000000    83.71000000    82.27000000
   C      2.26000000    82.60000000    84.14000000
   C      2.94000000    82.03000000    85.38000000
   N      2.78000000    80.75000000    85.73000000
   O      3.70000000    82.70000000    86.08000000
   H      0.93000000    83.95000000    82.53000000
   H      2.65000000    84.56000000    84.74000000
   H      2.62000000    81.96000000    83.33000000
   H      1.17000000    82.59000000    84.15000000
   H      2.05000000    80.19000000    85.31000000
   H      3.36000000    80.38000000    86.47000000
   N      4.91000000    84.90000000    84.11000000
   C      6.36000000    84.88000000    83.99000000
   C      7.09000000    83.57000000    84.23000000
   O      8.20000000    83.38000000    83.73000000
   H      4.51000000    85.23000000    84.98000000
   H      6.66000000    85.60000000    84.75000000
   H      6.69000000    85.34000000    83.06000000
   N      6.54000000    82.55000000    84.89000000
   C      7.14000000    81.23000000    85.05000000
   C      6.64000000    80.24000000    84.01000000
   O      5.48000000    80.25000000    83.63000000
   C      6.80000000    80.79000000    86.47000000
   C      7.47000000    79.52000000    86.96000000
   C      6.76000000    78.33000000    87.15000000
   C      8.83000000    79.51000000    87.27000000
   C      7.36000000    77.23000000    87.77000000
   C      9.47000000    78.39000000    87.82000000
   C      8.71000000    77.26000000    88.17000000
   O      9.38000000    76.23000000    88.76000000
   H      5.71000000    82.76000000    85.42000000
   H      8.22000000    81.28000000    84.95000000
   H      5.74000000    80.58000000    86.56000000
   H      7.19000000    81.56000000    87.13000000
   H      5.73000000    78.23000000    86.82000000
   H      9.41000000    80.41000000    87.09000000
   H      6.73000000    76.37000000    87.94000000
   H     10.52000000    78.48000000    88.07000000
   H     10.32000000    76.42000000    88.76000000
   N      7.61000000    79.48000000    83.49000000
   C      7.53000000    78.56000000    82.38000000
   C      6.70000000    77.30000000    82.61000000
   O      5.52000000    77.28000000    82.94000000
   C      7.21000000    79.27000000    81.07000000
   C      7.01000000    78.39000000    79.85000000
   C      8.24000000    80.37000000    80.81000000
   C      6.48000000    79.07000000    78.59000000
   H      8.58000000    79.64000000    83.73000000
   H      8.58000000    78.25000000    82.31000000
   H      6.30000000    79.82000000    81.31000000
   H      6.37000000    77.54000000    80.11000000
   H      7.98000000    77.94000000    79.62000000
   H      7.86000000    80.95000000    79.96000000
   H      8.34000000    81.07000000    81.64000000
   H      9.21000000    79.92000000    80.63000000
   H      7.28000000    79.67000000    78.15000000
   H      6.16000000    78.38000000    77.81000000
   H      5.65000000    79.71000000    78.88000000
   N      7.29000000    76.20000000    82.16000000
   C      6.65000000    74.90000000    82.19000000
   C      7.55000000    73.68000000    82.37000000
   O      7.10000000    72.64000000    82.86000000
   C      5.84000000    74.69000000    80.92000000
   O      6.63000000    74.96000000    79.79000000
   H      8.22000000    76.26000000    81.77000000
   H      6.02000000    74.99000000    83.08000000
   H      5.10000000    75.50000000    80.90000000
   H      5.30000000    73.76000000    80.74000000
   H      6.14000000    75.09000000    78.97000000
   N      8.84000000    73.74000000    82.03000000
   C      9.86000000    72.72000000    82.11000000
   C      9.43000000    71.37000000    81.55000000
   O      9.75000000    70.32000000    82.10000000
   C     10.57000000    72.74000000    83.47000000
   H      9.16000000    74.64000000    81.70000000
   H     10.53000000    73.07000000    81.33000000
   H      9.80000000    72.47000000    84.19000000
   H     11.31000000    71.95000000    83.55000000
   H     10.97000000    73.76000000    83.47000000
   N      8.97000000    71.29000000    80.30000000
   C      8.83000000    72.33000000    79.30000000
   C      9.98000000    72.26000000    78.30000000
   O     10.60000000    71.24000000    78.04000000
   C      7.43000000    72.21000000    78.70000000
   H      8.76000000    70.36000000    79.96000000
   H      8.82000000    73.28000000    79.84000000
   H      6.75000000    72.38000000    79.53000000
   H      7.18000000    72.76000000    77.79000000
   H      7.41000000    71.15000000    78.43000000
   N     10.29000000    73.33000000    77.55000000
   C      9.92000000    74.71000000    77.74000000
   C     11.15000000    75.58000000    77.95000000
   O     11.16000000    76.59000000    78.64000000
   C      9.12000000    75.18000000    76.53000000
   C      8.61000000    76.62000000    76.56000000
   C      7.55000000    76.87000000    75.49000000
   O      6.48000000    76.24000000    75.63000000
   O      7.78000000    77.70000000    74.59000000
   H     10.89000000    72.99000000    76.81000000
   H      9.27000000    74.95000000    78.58000000
   H      8.26000000    74.51000000    76.43000000
   H      9.64000000    75.09000000    75.57000000
   H      9.47000000    77.26000000    76.34000000
   H      8.27000000    76.76000000    77.58000000
   N     12.26000000    75.16000000    77.32000000
   C     13.54000000    75.81000000    77.50000000
   H     14.26700000    75.37500000    76.81400000
   H     13.43900000    76.87600000    77.29400000
   H     13.87900000    75.66800000    78.52600000
   H     12.15000000    74.57000000    76.51000000
  Ca      2.39000000    82.37000000    78.47000000
   O      3.91000000    81.29000000    80.52000000
   H      4.03000000    80.36000000    80.70000000
   H      4.33000000    81.73000000    81.26000000
   O      2.76000000    79.62000000    78.07000000
   H      2.52000000    79.38000000    77.18000000
   H      2.51000000    78.86000000    78.60000000
   O      4.90000000    81.86000000    77.44000000
   H      4.99000000    81.85000000    76.49000000
   H      5.76000000    82.15000000    77.76000000
   O      3.86000000    84.23000000    79.75000000
   H      3.87000000    84.31000000    80.71000000
   H      4.76000000    84.43000000    79.49000000
   O      1.97000000    81.69000000    75.80000000
   H      2.47000000    81.02000000    75.33000000
   H      1.59000000    82.23000000    75.12000000

Ca 1.00



