%chk=loop3.apoCaM-CA-Ng.Init293.run64.water5.chk
%nprocshared=20
%mem=10GB
%nosave
#b3lyp/svp scf=(tight,noincore,xqc) Test 
#IOP(5/87=12) Density=Current Pop=(MK,readradii) iop(6/33=2) iop(6/42=6)

loop3.apoCaM-CA-Ng.Init293.run64.water5 

   0  1 
   C     57.16000000    65.55000000    32.68000000
   C     56.85000000    64.09000000    32.36000000
   O     57.58000000    63.16000000    32.68000000
   H     58.07600000    65.84700000    32.16900000
   H     56.33600000    66.17900000    32.34300000
   H     57.29100000    65.66700000    33.75600000
   N     55.62000000    63.97000000    31.85000000
   C     54.95000000    62.79000000    31.35000000
   C     54.26000000    62.04000000    32.49000000
   O     53.87000000    62.59000000    33.51000000
   C     53.93000000    63.16000000    30.27000000
   C     53.44000000    62.06000000    29.34000000
   O     53.99000000    60.94000000    29.44000000
   O     52.45000000    62.20000000    28.59000000
   H     55.15000000    64.84000000    31.64000000
   H     55.70000000    62.12000000    30.94000000
   H     54.29000000    64.01000000    29.70000000
   H     53.11000000    63.62000000    30.82000000
   N     54.09000000    60.72000000    32.35000000
   C     53.28000000    59.77000000    33.08000000
   C     51.80000000    60.07000000    32.88000000
   O     51.31000000    61.19000000    32.77000000
   C     53.67000000    59.65000000    34.55000000
   C     53.40000000    58.25000000    35.10000000
   C     53.10000000    58.22000000    36.60000000
   C     51.93000000    59.11000000    37.00000000
   N     50.65000000    58.50000000    36.61000000
   H     54.43000000    60.36000000    31.47000000
   H     53.48000000    58.78000000    32.67000000
   H     52.99000000    60.34000000    35.04000000
   H     54.67000000    60.00000000    34.78000000
   H     54.27000000    57.63000000    34.90000000
   H     52.58000000    57.80000000    34.53000000
   H     53.94000000    58.62000000    37.16000000
   H     53.02000000    57.19000000    36.96000000
   H     51.99000000    60.11000000    36.58000000
   H     52.08000000    59.26000000    38.07000000
   H     49.98000000    59.08000000    37.08000000
   H     50.46000000    58.56000000    35.62000000
   H     50.41000000    57.56000000    36.90000000
   N     51.02000000    58.99000000    32.75000000
   C     49.61000000    58.96000000    32.43000000
   C     48.83000000    59.68000000    33.53000000
   O     49.35000000    59.86000000    34.63000000
   C     49.10000000    57.53000000    32.27000000
   C     49.37000000    56.50000000    33.36000000
   O     49.82000000    56.87000000    34.46000000
   O     49.05000000    55.30000000    33.21000000
   H     51.42000000    58.08000000    32.95000000
   H     49.39000000    59.47000000    31.50000000
   H     49.48000000    57.16000000    31.31000000
   H     48.03000000    57.64000000    32.10000000
   N     47.58000000    60.05000000    33.27000000
   C     46.83000000    60.72000000    34.32000000
   C     45.52000000    61.25000000    33.78000000
   O     45.52000000    62.26000000    33.08000000
   H     47.14000000    59.86000000    32.38000000
   H     47.28000000    61.54000000    34.89000000
   H     46.57000000    59.95000000    35.05000000
   N     44.40000000    60.60000000    34.11000000
   C     43.10000000    61.09000000    33.67000000
   C     42.71000000    62.22000000    34.61000000
   O     42.89000000    62.15000000    35.82000000
   C     42.11000000    59.93000000    33.71000000
   C     42.41000000    58.85000000    32.68000000
   N     41.97000000    57.61000000    32.92000000
   O     43.25000000    59.02000000    31.81000000
   H     44.44000000    59.80000000    34.72000000
   H     43.19000000    61.44000000    32.65000000
   H     41.13000000    60.32000000    33.42000000
   H     42.10000000    59.48000000    34.71000000
   H     41.34000000    57.44000000    33.70000000
   H     42.49000000    56.84000000    32.54000000
   N     42.04000000    63.25000000    34.08000000
   C     41.48000000    64.30000000    34.90000000
   C     42.39000000    64.99000000    35.90000000
   O     43.61000000    65.02000000    35.70000000
   H     41.90000000    63.27000000    33.08000000
   H     40.69000000    63.82000000    35.48000000
   H     40.97000000    65.08000000    34.32000000
   N     41.84000000    65.44000000    37.03000000
   C     42.37000000    66.03000000    38.24000000
   C     43.32000000    65.17000000    39.06000000
   O     43.49000000    65.45000000    40.24000000
   C     42.81000000    67.49000000    38.14000000
   C     44.10000000    67.85000000    37.44000000
   C     45.24000000    68.08000000    38.22000000
   C     44.19000000    67.92000000    36.05000000
   C     46.50000000    68.37000000    37.66000000
   C     45.44000000    68.11000000    35.45000000
   C     46.57000000    68.34000000    36.25000000
   O     47.75000000    68.80000000    35.73000000
   H     40.86000000    65.20000000    37.10000000
   H     41.48000000    66.27000000    38.82000000
   H     42.79000000    67.92000000    39.14000000
   H     42.06000000    68.04000000    37.57000000
   H     45.21000000    68.17000000    39.29000000
   H     43.24000000    67.90000000    35.54000000
   H     47.38000000    68.58000000    38.25000000
   H     45.44000000    68.06000000    34.37000000
   H     47.66000000    68.85000000    34.78000000
   N     44.03000000    64.18000000    38.51000000
   C     45.16000000    63.41000000    38.98000000
   C     44.77000000    62.48000000    40.12000000
   O     45.50000000    61.52000000    40.34000000
   C     46.33000000    64.36000000    39.26000000
   C     46.89000000    64.94000000    37.96000000
   C     47.50000000    63.83000000    40.09000000
   C     47.51000000    64.00000000    36.94000000
   H     43.80000000    63.96000000    37.55000000
   H     45.45000000    62.78000000    38.14000000
   H     46.00000000    65.26000000    39.78000000
   H     47.61000000    65.73000000    38.13000000
   H     46.05000000    65.41000000    37.45000000
   H     48.03000000    62.96000000    39.70000000
   H     48.16000000    64.63000000    40.42000000
   H     47.07000000    63.60000000    41.06000000
   H     47.00000000    63.04000000    36.88000000
   H     47.56000000    64.48000000    35.96000000
   H     48.51000000    63.69000000    37.25000000
   N     43.71000000    62.69000000    40.90000000
   C     43.25000000    61.75000000    41.90000000
   C     44.25000000    61.52000000    43.02000000
   O     44.07000000    60.60000000    43.81000000
   C     41.99000000    62.36000000    42.52000000
   O     41.00000000    62.24000000    41.53000000
   H     43.11000000    63.47000000    40.66000000
   H     43.08000000    60.80000000    41.40000000
   H     42.11000000    63.36000000    42.94000000
   H     41.68000000    61.62000000    43.27000000
   H     40.25000000    61.68000000    41.74000000
   N     45.24000000    62.41000000    43.14000000
   C     46.35000000    62.21000000    44.05000000
   C     47.12000000    60.91000000    43.87000000
   O     47.82000000    60.56000000    44.82000000
   C     45.93000000    62.53000000    45.49000000
   H     45.24000000    63.05000000    42.37000000
   H     47.12000000    62.95000000    43.83000000
   H     46.73000000    62.61000000    46.23000000
   H     45.32000000    63.43000000    45.56000000
   H     45.31000000    61.79000000    45.99000000
   N     47.11000000    60.20000000    42.74000000
   C     47.79000000    58.93000000    42.65000000
   C     49.10000000    58.90000000    41.88000000
   O     49.36000000    59.74000000    41.02000000
   C     46.76000000    57.95000000    42.11000000
   H     46.78000000    60.62000000    41.88000000
   H     48.05000000    58.65000000    43.67000000
   H     47.10000000    56.92000000    42.05000000
   H     45.90000000    58.00000000    42.78000000
   H     46.48000000    58.16000000    41.08000000
   N     49.95000000    57.90000000    42.16000000
   C     51.17000000    57.63000000    41.44000000
   C     52.21000000    58.73000000    41.47000000
   O     53.22000000    58.67000000    40.76000000
   C     50.90000000    57.18000000    40.00000000
   C     50.15000000    55.86000000    39.84000000
   C     50.21000000    55.33000000    38.42000000
   O     50.64000000    54.17000000    38.20000000
   O     49.78000000    55.93000000    37.42000000
   H     49.67000000    57.29000000    42.91000000
   H     51.69000000    56.81000000    41.94000000
   H     51.86000000    57.03000000    39.50000000
   H     50.30000000    57.96000000    39.53000000
   H     49.12000000    56.00000000    40.18000000
   H     50.66000000    55.22000000    40.56000000
   N     52.14000000    59.68000000    42.41000000
   C     52.99000000    60.84000000    42.59000000
   H     53.91700000    60.70000000    42.03300000
   H     52.47600000    61.72800000    42.22200000
   H     53.21800000    60.96400000    43.64900000
   H     51.34000000    59.68000000    43.02000000
  Ca     49.84000000    54.36000000    35.50000000
   O     47.24000000    55.08000000    35.73000000
   H     46.85000000    55.82000000    35.27000000
   H     46.55000000    54.77000000    36.31000000
   O     48.43000000    52.24000000    36.79000000
   H     48.12000000    51.60000000    36.16000000
   H     48.11000000    51.93000000    37.63000000
   O     51.35000000    52.10000000    36.08000000
   H     51.40000000    51.54000000    36.86000000
   H     51.89000000    51.65000000    35.43000000
   O     49.61000000    52.26000000    33.70000000
   H     48.77000000    51.80000000    33.74000000
   H     50.00000000    51.97000000    32.88000000
   O     52.23000000    55.12000000    34.38000000
   H     52.12000000    55.78000000    33.70000000
   H     53.18000000    55.03000000    34.46000000

Ca 1.00



