%chk=loop4.apoCaM-CA-Ng.Init295.run6.water5.chk
%nprocshared=20
%mem=10GB
%nosave
#b3lyp/svp scf=(tight,noincore,xqc) Test 
#IOP(5/87=12) Density=Current Pop=(MK,readradii) iop(6/33=2) iop(6/42=6)

loop4.apoCaM-CA-Ng.Init295.run6.water5 

   -3  1 
   C     56.45000000    26.39000000    71.44000000
   C     56.71000000    26.41000000    72.94000000
   O     57.27000000    27.34000000    73.51000000
   H     55.69100000    27.13200000    71.19300000
   H     57.37200000    26.62400000    70.90800000
   H     56.10000000    25.40100000    71.14500000
   N     56.42000000    25.28000000    73.58000000
   C     56.51000000    25.05000000    75.01000000
   C     55.65000000    25.99000000    75.84000000
   O     55.97000000    26.29000000    76.99000000
   C     57.96000000    25.07000000    75.48000000
   C     59.01000000    24.43000000    74.57000000
   O     59.48000000    25.12000000    73.65000000
   O     59.39000000    23.24000000    74.68000000
   H     56.11000000    24.50000000    73.01000000
   H     56.15000000    24.03000000    75.15000000
   H     57.97000000    24.54000000    76.43000000
   H     58.27000000    26.09000000    75.71000000
   N     54.51000000    26.52000000    75.38000000
   C     53.44000000    27.13000000    76.14000000
   C     52.37000000    26.09000000    76.44000000
   O     51.94000000    25.28000000    75.62000000
   C     52.85000000    28.20000000    75.23000000
   C     53.66000000    29.48000000    75.06000000
   C     51.39000000    28.56000000    75.53000000
   C     53.26000000    30.52000000    74.01000000
   H     54.18000000    26.18000000    74.48000000
   H     53.96000000    27.60000000    76.97000000
   H     52.89000000    27.74000000    74.25000000
   H     54.72000000    29.30000000    74.89000000
   H     53.62000000    29.93000000    76.06000000
   H     50.74000000    27.70000000    75.45000000
   H     51.31000000    28.89000000    76.57000000
   H     50.93000000    29.22000000    74.80000000
   H     52.26000000    30.87000000    74.26000000
   H     53.92000000    31.37000000    74.14000000
   H     53.28000000    30.05000000    73.03000000
   N     51.95000000    25.96000000    77.70000000
   C     52.39000000    26.71000000    78.86000000
   C     53.69000000    26.25000000    79.50000000
   O     54.46000000    27.05000000    80.03000000
   C     51.25000000    26.85000000    79.86000000
   C     49.99000000    27.45000000    79.27000000
   O     49.16000000    26.59000000    78.91000000
   O     49.90000000    28.70000000    79.19000000
   H     51.47000000    25.10000000    77.90000000
   H     52.52000000    27.75000000    78.54000000
   H     51.58000000    27.48000000    80.69000000
   H     50.98000000    25.84000000    80.18000000
   N     54.05000000    24.98000000    79.31000000
   C     55.12000000    24.27000000    79.99000000
   C     55.25000000    24.55000000    81.48000000
   O     54.38000000    24.24000000    82.29000000
   H     53.31000000    24.45000000    78.87000000
   H     56.04000000    24.54000000    79.48000000
   H     55.15000000    23.18000000    79.96000000
   N     56.30000000    25.30000000    81.83000000
   C     56.56000000    25.67000000    83.21000000
   C     56.90000000    27.15000000    83.32000000
   O     56.97000000    27.73000000    84.40000000
   C     57.58000000    24.68000000    83.77000000
   C     58.84000000    24.39000000    82.97000000
   O     59.15000000    25.17000000    82.04000000
   O     59.64000000    23.50000000    83.35000000
   H     57.07000000    25.53000000    81.23000000
   H     55.68000000    25.44000000    83.81000000
   H     57.05000000    23.73000000    83.77000000
   H     57.94000000    25.00000000    84.75000000
   N     57.14000000    27.87000000    82.23000000
   C     57.19000000    29.31000000    82.17000000
   C     58.59000000    29.85000000    82.41000000
   O     58.69000000    31.06000000    82.26000000
   H     56.93000000    27.32000000    81.41000000
   H     56.53000000    29.83000000    82.87000000
   H     56.82000000    29.71000000    81.22000000
   N     59.68000000    29.13000000    82.71000000
   C     60.95000000    29.67000000    83.17000000
   C     61.83000000    30.42000000    82.18000000
   O     62.67000000    31.22000000    82.59000000
   C     60.74000000    30.25000000    84.57000000
   C     62.00000000    30.36000000    85.42000000
   C     62.83000000    29.14000000    85.79000000
   N     63.92000000    29.31000000    86.54000000
   O     62.57000000    28.00000000    85.44000000
   H     59.58000000    28.13000000    82.81000000
   H     61.37000000    28.68000000    83.32000000
   H     60.04000000    29.66000000    85.15000000
   H     60.27000000    31.22000000    84.40000000
   H     61.73000000    30.81000000    86.38000000
   H     62.67000000    31.06000000    84.91000000
   H     64.29000000    30.18000000    86.90000000
   H     64.58000000    28.58000000    86.80000000
   N     61.52000000    30.40000000    80.88000000
   C     62.20000000    31.15000000    79.85000000
   C     63.49000000    30.51000000    79.35000000
   O     63.40000000    29.35000000    78.96000000
   C     61.37000000    31.60000000    78.64000000
   C     59.99000000    32.07000000    79.09000000
   C     62.07000000    32.63000000    77.77000000
   H     60.72000000    29.83000000    80.64000000
   H     62.48000000    32.09000000    80.33000000
   H     61.16000000    30.75000000    78.00000000
   H     59.53000000    31.28000000    79.69000000
   H     60.07000000    32.94000000    79.74000000
   H     59.37000000    32.16000000    78.20000000
   H     62.93000000    32.25000000    77.22000000
   H     61.34000000    33.01000000    77.05000000
   H     62.36000000    33.45000000    78.42000000
   N     64.62000000    31.21000000    79.28000000
   C     65.96000000    30.81000000    78.89000000
   C     66.13000000    30.77000000    77.37000000
   O     65.50000000    31.51000000    76.62000000
   C     67.08000000    31.59000000    79.54000000
   C     68.52000000    31.15000000    79.28000000
   N     68.70000000    29.84000000    79.41000000
   O     69.43000000    31.90000000    78.93000000
   H     64.56000000    32.19000000    79.50000000
   H     66.07000000    29.75000000    79.11000000
   H     66.92000000    31.52000000    80.62000000
   H     67.04000000    32.62000000    79.18000000
   H     68.05000000    29.30000000    79.96000000
   H     69.63000000    29.46000000    79.26000000
   N     67.06000000    29.93000000    76.91000000
   C     67.45000000    29.83000000    75.52000000
   C     67.99000000    28.44000000    75.23000000
   O     68.59000000    27.81000000    76.09000000
   C     68.38000000    31.00000000    75.20000000
   C     69.01000000    30.94000000    73.83000000
   C     68.20000000    30.98000000    72.69000000
   C     70.36000000    30.59000000    73.75000000
   C     68.73000000    30.62000000    71.44000000
   C     70.92000000    30.32000000    72.50000000
   C     70.12000000    30.41000000    71.34000000
   O     70.56000000    30.03000000    70.11000000
   H     67.73000000    29.57000000    77.57000000
   H     66.50000000    29.88000000    74.99000000
   H     69.10000000    31.08000000    76.01000000
   H     67.84000000    31.95000000    75.28000000
   H     67.15000000    31.22000000    72.66000000
   H     70.94000000    30.52000000    74.66000000
   H     68.19000000    30.60000000    70.50000000
   H     71.96000000    30.05000000    72.45000000
   H     71.50000000    29.87000000    70.19000000
   N     67.85000000    28.00000000    73.98000000
   C     68.29000000    26.71000000    73.49000000
   C     68.62000000    26.64000000    72.01000000
   O     69.73000000    26.27000000    71.62000000
   C     67.27000000    25.64000000    73.88000000
   C     67.80000000    24.21000000    73.76000000
   C     66.71000000    23.21000000    74.11000000
   O     66.69000000    22.86000000    75.31000000
   O     65.94000000    22.68000000    73.29000000
   H     67.40000000    28.57000000    73.27000000
   H     69.20000000    26.46000000    74.04000000
   H     66.34000000    25.71000000    73.32000000
   H     66.99000000    25.86000000    74.91000000
   H     68.71000000    24.09000000    74.36000000
   H     68.01000000    24.06000000    72.70000000
   N     67.82000000    27.05000000    71.03000000
   C     66.37000000    27.16000000    71.04000000
   C     65.81000000    28.26000000    70.14000000
   O     66.59000000    28.70000000    69.30000000
   C     65.76000000    25.83000000    70.63000000
   C     66.04000000    25.33000000    69.21000000
   C     65.56000000    23.89000000    69.10000000
   O     64.34000000    23.65000000    68.95000000
   O     66.42000000    22.99000000    69.14000000
   H     68.25000000    27.11000000    70.12000000
   H     66.01000000    27.46000000    72.03000000
   H     64.68000000    25.94000000    70.75000000
   H     66.04000000    25.01000000    71.29000000
   H     67.10000000    25.45000000    68.98000000
   H     65.56000000    25.97000000    68.47000000
   N     64.57000000    28.73000000    70.27000000
   C     63.89000000    29.76000000    69.51000000
   H     62.97000000    30.04100000    70.02200000
   H     64.53600000    30.63300000    69.42100000
   H     63.65100000    29.38100000    68.51600000
   H     64.06000000    28.34000000    71.05000000
  Ca     60.38000000    23.16000000    72.25000000
   O     58.17000000    21.67000000    72.61000000
   H     57.49000000    21.91000000    73.24000000
   H     58.14000000    20.72000000    72.56000000
   O     62.78000000    22.46000000    70.88000000
   H     62.54000000    21.59000000    70.56000000
   H     63.34000000    22.82000000    70.19000000
   O     61.66000000    25.22000000    71.06000000
   H     61.76000000    26.11000000    71.40000000
   H     62.10000000    25.24000000    70.21000000
   O     62.73000000    23.74000000    73.47000000
   H     62.95000000    23.79000000    72.54000000
   H     63.58000000    23.70000000    73.91000000
   O     61.14000000    20.79000000    73.36000000
   H     61.21000000    20.39000000    74.22000000
   H     61.07000000    20.04000000    72.76000000

Ca 1.00



