%chk=loop3.apoCaM-CA-Ng.Init31.run89.water6.chk
%nprocshared=20
%mem=10GB
%nosave
#b3lyp/svp scf=(tight,noincore,xqc) Test 
#IOP(5/87=12) Density=Current Pop=(MK,readradii) iop(6/33=2) iop(6/42=6)

loop3.apoCaM-CA-Ng.Init31.run89.water6 

   0  1 
   C     74.20000000    75.45000000    38.50000000
   C     74.10000000    74.14000000    37.73000000
   O     74.29000000    73.04000000    38.25000000
   H     74.85600000    76.13600000    37.96400000
   H     73.20900000    75.89400000    38.59300000
   H     74.60800000    75.25900000    39.49200000
   N     73.68000000    74.23000000    36.46000000
   C     73.36000000    73.14000000    35.57000000
   C     74.57000000    72.34000000    35.10000000
   O     75.68000000    72.86000000    35.02000000
   C     72.64000000    73.73000000    34.37000000
   C     73.17000000    75.07000000    33.88000000
   O     74.05000000    75.12000000    32.99000000
   O     72.67000000    76.16000000    34.24000000
   H     73.33000000    75.16000000    36.27000000
   H     72.75000000    72.36000000    36.01000000
   H     71.57000000    73.84000000    34.56000000
   H     72.69000000    73.06000000    33.51000000
   N     74.38000000    71.08000000    34.70000000
   C     75.36000000    70.24000000    34.06000000
   C     76.25000000    69.38000000    34.95000000
   O     77.46000000    69.44000000    34.78000000
   C     74.66000000    69.46000000    32.95000000
   C     75.52000000    68.40000000    32.27000000
   C     74.59000000    67.77000000    31.24000000
   C     75.24000000    66.51000000    30.69000000
   N     76.02000000    66.64000000    29.45000000
   H     73.44000000    70.74000000    34.84000000
   H     75.97000000    70.89000000    33.42000000
   H     74.36000000    70.16000000    32.17000000
   H     73.83000000    68.93000000    33.43000000
   H     75.85000000    67.70000000    33.04000000
   H     76.35000000    68.90000000    31.77000000
   H     74.40000000    68.48000000    30.44000000
   H     73.64000000    67.45000000    31.68000000
   H     74.44000000    65.78000000    30.61000000
   H     75.76000000    65.95000000    31.48000000
   H     76.74000000    67.35000000    29.54000000
   H     76.43000000    65.79000000    29.10000000
   H     75.41000000    66.82000000    28.67000000
   N     75.66000000    68.52000000    35.79000000
   C     76.40000000    67.69000000    36.72000000
   C     76.64000000    66.30000000    36.15000000
   O     76.27000000    65.27000000    36.70000000
   C     75.83000000    67.63000000    38.13000000
   C     74.35000000    67.27000000    38.16000000
   O     73.72000000    67.47000000    39.22000000
   O     73.86000000    66.65000000    37.19000000
   H     74.69000000    68.32000000    35.59000000
   H     77.36000000    68.21000000    36.76000000
   H     75.91000000    68.59000000    38.64000000
   H     76.31000000    66.87000000    38.74000000
   N     77.28000000    66.22000000    34.98000000
   C     77.55000000    64.99000000    34.28000000
   C     76.31000000    64.33000000    33.68000000
   O     75.21000000    64.89000000    33.74000000
   H     77.52000000    67.10000000    34.55000000
   H     77.89000000    64.29000000    35.04000000
   H     78.40000000    65.05000000    33.61000000
   N     76.39000000    63.12000000    33.13000000
   C     77.58000000    62.33000000    32.89000000
   C     77.37000000    60.95000000    33.51000000
   O     76.22000000    60.51000000    33.43000000
   C     77.80000000    62.22000000    31.38000000
   C     78.26000000    63.51000000    30.71000000
   N     79.59000000    63.58000000    30.57000000
   O     77.49000000    64.42000000    30.43000000
   H     75.48000000    62.68000000    33.05000000
   H     78.40000000    62.87000000    33.34000000
   H     76.92000000    61.83000000    30.89000000
   H     78.61000000    61.50000000    31.29000000
   H     80.21000000    62.98000000    31.09000000
   H     79.99000000    64.38000000    30.10000000
   N     78.40000000    60.25000000    33.98000000
   C     79.82000000    60.50000000    33.82000000
   C     80.51000000    61.31000000    34.92000000
   O     80.40000000    62.53000000    34.92000000
   H     78.07000000    59.41000000    34.44000000
   H     79.94000000    61.07000000    32.90000000
   H     80.29000000    59.53000000    33.74000000
   N     81.10000000    60.63000000    35.90000000
   C     81.52000000    61.19000000    37.16000000
   C     83.02000000    61.01000000    37.38000000
   O     83.47000000    59.97000000    37.83000000
   C     80.77000000    60.56000000    38.34000000
   C     79.30000000    60.59000000    38.01000000
   C     78.58000000    61.79000000    38.01000000
   C     78.59000000    59.42000000    37.71000000
   C     77.22000000    61.89000000    37.68000000
   C     77.25000000    59.51000000    37.32000000
   C     76.55000000    60.73000000    37.24000000
   O     75.28000000    60.81000000    36.74000000
   H     81.33000000    59.65000000    35.79000000
   H     81.26000000    62.25000000    37.14000000
   H     80.91000000    61.08000000    39.28000000
   H     81.08000000    59.55000000    38.57000000
   H     79.08000000    62.70000000    38.30000000
   H     79.08000000    58.46000000    37.64000000
   H     76.79000000    62.88000000    37.60000000
   H     76.80000000    58.57000000    37.03000000
   H     74.90000000    59.94000000    36.61000000
   N     83.79000000    62.06000000    37.07000000
   C     85.23000000    62.01000000    37.21000000
   C     85.60000000    62.93000000    38.37000000
   O     86.28000000    62.44000000    39.27000000
   C     85.94000000    62.31000000    35.89000000
   C     87.43000000    61.99000000    36.00000000
   C     85.30000000    61.58000000    34.71000000
   C     88.51000000    62.78000000    36.74000000
   H     83.31000000    62.83000000    36.63000000
   H     85.54000000    61.03000000    37.56000000
   H     85.78000000    63.35000000    35.62000000
   H     87.76000000    62.11000000    34.97000000
   H     87.54000000    60.93000000    36.23000000
   H     85.18000000    60.55000000    35.03000000
   H     84.43000000    62.15000000    34.38000000
   H     86.02000000    61.43000000    33.91000000
   H     88.37000000    63.86000000    36.65000000
   H     88.36000000    62.58000000    37.80000000
   H     89.45000000    62.53000000    36.26000000
   N     85.32000000    64.23000000    38.34000000
   C     86.05000000    65.26000000    39.06000000
   C     85.99000000    66.59000000    38.33000000
   O     86.81000000    67.48000000    38.59000000
   C     85.50000000    65.45000000    40.47000000
   O     84.58000000    66.52000000    40.47000000
   H     84.71000000    64.63000000    37.64000000
   H     87.10000000    64.98000000    39.03000000
   H     86.39000000    65.55000000    41.09000000
   H     85.02000000    64.51000000    40.73000000
   H     83.86000000    66.33000000    39.87000000
   N     85.17000000    66.70000000    37.29000000
   C     84.82000000    67.84000000    36.48000000
   C     83.51000000    68.49000000    36.91000000
   O     82.52000000    68.47000000    36.18000000
   C     84.73000000    67.42000000    35.01000000
   H     84.44000000    66.00000000    37.39000000
   H     85.58000000    68.61000000    36.57000000
   H     83.93000000    66.69000000    34.96000000
   H     84.61000000    68.24000000    34.30000000
   H     85.62000000    66.89000000    34.68000000
   N     83.52000000    69.30000000    37.97000000
   C     82.46000000    70.19000000    38.40000000
   C     81.11000000    69.54000000    38.63000000
   O     80.08000000    70.19000000    38.46000000
   C     82.38000000    71.43000000    37.52000000
   H     84.36000000    69.40000000    38.53000000
   H     82.79000000    70.47000000    39.40000000
   H     81.80000000    71.26000000    36.61000000
   H     82.02000000    72.26000000    38.13000000
   H     83.37000000    71.81000000    37.26000000
   N     81.11000000    68.25000000    38.95000000
   C     79.93000000    67.42000000    39.10000000
   C     79.73000000    66.95000000    40.54000000
   O     78.62000000    67.03000000    41.06000000
   C     79.88000000    66.41000000    37.96000000
   C     80.69000000    65.12000000    38.10000000
   C     82.18000000    65.36000000    37.96000000
   O     82.73000000    66.06000000    38.84000000
   O     82.83000000    64.80000000    37.05000000
   H     81.95000000    67.70000000    38.87000000
   H     79.04000000    68.01000000    38.90000000
   H     80.21000000    66.85000000    37.02000000
   H     78.83000000    66.10000000    37.87000000
   H     80.33000000    64.43000000    37.34000000
   H     80.39000000    64.60000000    39.01000000
   N     80.76000000    66.48000000    41.25000000
   C     80.72000000    66.06000000    42.63000000
   H     79.81700000    66.44700000    43.10100000
   H     80.71600000    64.97100000    42.67900000
   H     81.59500000    66.44500000    43.15300000
   H     81.63000000    66.46000000    40.72000000
  Ca     71.15000000    66.88000000    38.94000000
   O     72.42000000    64.61000000    38.08000000
   H     72.58000000    63.68000000    37.92000000
   H     73.25000000    65.04000000    37.86000000
   O     70.38000000    66.39000000    36.33000000
   H     69.70000000    67.05000000    36.21000000
   H     70.41000000    65.93000000    35.49000000
   O     71.83000000    69.39000000    37.76000000
   H     72.71000000    69.69000000    37.54000000
   H     71.25000000    69.88000000    37.18000000
   O     69.19000000    64.99000000    38.85000000
   H     68.90000000    64.74000000    39.72000000
   H     68.48000000    64.73000000    38.27000000
   O     71.89000000    68.97000000    40.57000000
   H     72.05000000    69.62000000    39.89000000
   H     72.66000000    69.00000000    41.13000000
   O     72.00000000    65.93000000    41.66000000
   H     72.90000000    66.16000000    41.88000000
   H     71.80000000    65.16000000    42.20000000

Ca 1.00



