%chk=loop2.holoCaM-CaMKII.run39.water2.chk
%nprocshared=20
%mem=10GB
%nosave
#b3lyp/svp scf=(tight,noincore,xqc) Test 
#IOP(5/87=12) Density=Current Pop=(MK,readradii) iop(6/33=2) iop(6/42=6)

loop2.holoCaM-CaMKII.run39.water2 

   -2  1 
   C     75.51000000    49.31000000    -6.91300000
   C     75.37000000    48.31000000    -8.05300000
   O     76.21000000    48.25000000    -8.95300000
   H     76.16000000    50.12800000    -7.22500000
   H     74.52800000    49.70600000    -6.65400000
   H     75.94300000    48.81400000    -6.04500000
   N     74.35000000    47.45000000    -7.98300000
   C     73.94000000    46.46000000    -8.95300000
   C     73.76000000    46.95000000   -10.38300000
   O     73.23000000    48.03000000   -10.64300000
   C     72.82000000    45.53000000    -8.49300000
   C     72.90000000    44.11000000    -9.04300000
   O     72.21000000    43.22000000    -8.50300000
   O     73.80000000    43.75000000    -9.83300000
   H     73.77000000    47.64000000    -7.17300000
   H     74.78000000    45.77000000    -9.03300000
   H     71.93000000    46.16000000    -8.56300000
   H     73.01000000    45.40000000    -7.42300000
   N     74.07000000    46.06000000   -11.33300000
   C     73.94000000    46.20000000   -12.76300000
   C     73.57000000    44.96000000   -13.56300000
   O     73.33000000    45.08000000   -14.76300000
   C     75.29000000    46.67000000   -13.30300000
   H     74.16000000    45.11000000   -11.01300000
   H     73.27000000    47.03000000   -12.99300000
   H     75.71000000    47.43000000   -12.64300000
   H     76.04000000    45.89000000   -13.37300000
   H     75.08000000    47.07000000   -14.29300000
   N     73.56000000    43.79000000   -12.91300000
   C     73.10000000    42.53000000   -13.45300000
   C     72.05000000    41.73000000   -12.69300000
   O     71.39000000    40.89000000   -13.29300000
   C     74.24000000    41.61000000   -13.87300000
   C     75.31000000    41.61000000   -12.79300000
   O     74.92000000    41.49000000   -11.61300000
   O     76.51000000    41.72000000   -13.15300000
   H     73.85000000    43.75000000   -11.94300000
   H     72.48000000    42.87000000   -14.27300000
   H     74.68000000    42.06000000   -14.76300000
   H     73.81000000    40.62000000   -14.03300000
   N     71.82000000    41.97000000   -11.39300000
   C     70.94000000    41.16000000   -10.58300000
   C     71.48000000    39.79000000   -10.21300000
   O     70.66000000    38.93000000    -9.91300000
   H     72.32000000    42.71000000   -10.92300000
   H     70.00000000    41.05000000   -11.12300000
   H     70.74000000    41.71000000    -9.66300000
   N     72.75000000    39.41000000   -10.36300000
   C     73.31000000    38.16000000    -9.88300000
   C     73.32000000    37.94000000    -8.37300000
   O     73.60000000    36.81000000    -7.98300000
   C     74.61000000    37.86000000   -10.61300000
   C     75.81000000    38.60000000   -10.02300000
   N     76.98000000    38.05000000   -10.34300000
   O     75.63000000    39.62000000    -9.35300000
   H     73.41000000    40.05000000   -10.78300000
   H     72.63000000    37.35000000   -10.16300000
   H     74.45000000    38.16000000   -11.64300000
   H     74.80000000    36.78000000   -10.57300000
   H     76.97000000    37.13000000   -10.75300000
   H     77.80000000    38.63000000   -10.19300000
   N     72.90000000    38.88000000    -7.52300000
   C     72.76000000    38.77000000    -6.09300000
   C     74.10000000    39.04000000    -5.42300000
   O     74.14000000    38.74000000    -4.23300000
   H     72.84000000    39.82000000    -7.90300000
   H     72.56000000    37.72000000    -5.88300000
   H     72.01000000    39.47000000    -5.70300000
   N     75.19000000    39.40000000    -6.09300000
   C     76.53000000    39.64000000    -5.59300000
   C     77.17000000    40.86000000    -6.22300000
   O     76.78000000    41.31000000    -7.30300000
   C     77.47000000    38.48000000    -5.92300000
   C     76.97000000    37.18000000    -5.28300000
   O     77.31000000    38.13000000    -7.28300000
   H     75.06000000    39.51000000    -7.09300000
   H     76.56000000    39.62000000    -4.50300000
   H     78.54000000    38.62000000    -5.80300000
   H     77.38000000    38.81000000    -7.95300000
   H     76.65000000    37.35000000    -4.25300000
   H     76.12000000    36.78000000    -5.83300000
   H     77.82000000    36.50000000    -5.37300000
   N     78.17000000    41.38000000    -5.50300000
   C     79.06000000    42.40000000    -6.01300000
   C     79.98000000    41.73000000    -7.03300000
   O     80.52000000    40.66000000    -6.76300000
   C     79.89000000    42.90000000    -4.83300000
   C     79.11000000    43.44000000    -3.64300000
   C     80.84000000    43.97000000    -5.37300000
   C     78.10000000    44.54000000    -3.97300000
   H     78.45000000    40.93000000    -4.64300000
   H     78.50000000    43.25000000    -6.40300000
   H     80.50000000    42.04000000    -4.54300000
   H     79.71000000    43.84000000    -2.81300000
   H     78.64000000    42.59000000    -3.14300000
   H     81.59000000    43.46000000    -5.95300000
   H     80.28000000    44.73000000    -5.92300000
   H     81.37000000    44.41000000    -4.52300000
   H     77.59000000    44.77000000    -3.04300000
   H     78.45000000    45.53000000    -4.26300000
   H     77.39000000    44.14000000    -4.70300000
   N     80.18000000    42.40000000    -8.17300000
   C     81.14000000    42.07000000    -9.20300000
   C     82.26000000    43.10000000    -9.24300000
   O     82.00000000    44.20000000    -8.74300000
   C     80.56000000    41.85000000   -10.59300000
   C     79.36000000    40.91000000   -10.50300000
   O     78.23000000    41.31000000   -10.16300000
   O     79.57000000    39.72000000   -10.82300000
   H     79.71000000    43.28000000    -8.32300000
   H     81.66000000    41.13000000    -8.97300000
   H     81.32000000    41.59000000   -11.32300000
   H     80.16000000    42.80000000   -10.96300000
   N     83.47000000    42.84000000    -9.74300000
   C     84.56000000    43.78000000    -9.60300000
   C     84.20000000    45.18000000   -10.10300000
   O     84.47000000    46.13000000    -9.37300000
   C     85.85000000    43.26000000   -10.21300000
   C     87.04000000    44.18000000   -10.04300000
   C     87.45000000    45.03000000   -11.07300000
   C     87.53000000    44.37000000    -8.74300000
   C     88.52000000    45.91000000   -10.85300000
   C     88.42000000    45.42000000    -8.47300000
   C     89.08000000    45.99000000    -9.57300000
   H     83.60000000    41.88000000   -10.02300000
   H     84.80000000    43.94000000    -8.55300000
   H     85.64000000    42.99000000   -11.25300000
   H     86.11000000    42.32000000    -9.73300000
   H     87.03000000    44.97000000   -12.06300000
   H     87.10000000    43.86000000    -7.89300000
   H     89.05000000    46.31000000   -11.70300000
   H     88.83000000    45.52000000    -7.47300000
   H     90.02000000    46.48000000    -9.38300000
   N     83.55000000    45.33000000   -11.26300000
   C     83.08000000    46.64000000   -11.66300000
   C     82.20000000    47.44000000   -10.71300000
   O     82.16000000    48.66000000   -10.88300000
   C     82.40000000    46.42000000   -13.00300000
   C     82.90000000    45.09000000   -13.57300000
   C     83.36000000    44.36000000   -12.31300000
   H     83.98000000    47.26000000   -11.71300000
   H     81.31000000    46.42000000   -12.91300000
   H     82.64000000    47.23000000   -13.68300000
   H     82.12000000    44.54000000   -14.08300000
   H     83.76000000    45.32000000   -14.20300000
   H     82.55000000    43.71000000   -11.97300000
   H     84.24000000    43.74000000   -12.50300000
   N     81.50000000    46.83000000    -9.75300000
   C     80.50000000    47.39000000    -8.86300000
   C     81.22000000    47.71000000    -7.56300000
   O     80.76000000    48.64000000    -6.90300000
   C     79.38000000    46.38000000    -8.67300000
   C     78.87000000    45.75000000    -9.97300000
   C     77.77000000    44.72000000    -9.76300000
   O     76.83000000    44.56000000   -10.57300000
   O     77.83000000    44.02000000    -8.73300000
   H     81.57000000    45.83000000    -9.82300000
   H     80.03000000    48.30000000    -9.22300000
   H     78.55000000    46.84000000    -8.14300000
   H     79.78000000    45.52000000    -8.13300000
   H     79.69000000    45.34000000   -10.57300000
   H     78.51000000    46.61000000   -10.53300000
   N     82.26000000    46.91000000    -7.27300000
   C     83.05000000    47.10000000    -6.07300000
   H     83.94300000    47.67600000    -6.31400000
   H     82.46100000    47.63800000    -5.33100000
   H     83.34200000    46.12900000    -5.67200000
   H     82.51000000    46.22000000    -7.96300000
  Ca     75.95000000    42.33000000    -9.54300000
   O     75.69000000    44.13000000    -7.15300000
   H     76.52000000    44.32000000    -7.60300000
   H     75.61000000    44.82000000    -6.49300000
   O     73.96000000    41.85000000    -7.08300000
   H     74.46000000    42.39000000    -6.47300000
   H     73.30000000    42.45000000    -7.44300000

Ca 1.00



