%chk=loop1.holoCaM-CaMKII.run59.water2.chk
%nprocshared=20
%mem=10GB
%nosave
#b3lyp/svp scf=(tight,noincore,xqc) Test 
#IOP(5/87=12) Density=Current Pop=(MK,readradii) iop(6/33=2) iop(6/42=6)

loop1.holoCaM-CaMKII.run59.water2 

   0  1 
   C      7.09000000    55.84000000    22.22000000
   C      5.71000000    56.17000000    21.66000000
   O      5.29000000    55.48000000    20.73000000
   H      7.77300000    56.66400000    22.01100000
   H      7.01900000    55.69100000    23.29700000
   H      7.46500000    54.93000000    21.75100000
   N      4.91000000    57.04000000    22.27000000
   C      3.59000000    57.37000000    21.76000000
   C      3.64000000    58.11000000    20.43000000
   O      3.82000000    59.32000000    20.44000000
   C      2.93000000    58.12000000    22.91000000
   C      1.60000000    58.72000000    22.48000000
   O      1.02000000    59.59000000    23.17000000
   O      1.04000000    58.16000000    21.52000000
   H      5.21000000    57.63000000    23.04000000
   H      3.03000000    56.45000000    21.58000000
   H      3.59000000    58.91000000    23.27000000
   H      2.78000000    57.38000000    23.71000000
   N      3.51000000    57.40000000    19.31000000
   C      3.66000000    57.97000000    17.98000000
   C      2.57000000    58.89000000    17.44000000
   O      2.91000000    59.74000000    16.62000000
   C      3.87000000    56.86000000    16.95000000
   C      5.17000000    56.05000000    16.97000000
   C      6.43000000    56.85000000    16.66000000
   C      7.70000000    56.06000000    16.35000000
   N      8.11000000    55.29000000    17.54000000
   H      3.38000000    56.41000000    19.43000000
   H      4.56000000    58.57000000    18.02000000
   H      3.84000000    57.39000000    15.99000000
   H      3.07000000    56.13000000    16.99000000
   H      5.13000000    55.27000000    16.21000000
   H      5.28000000    55.51000000    17.91000000
   H      6.60000000    57.52000000    17.50000000
   H      6.20000000    57.51000000    15.83000000
   H      8.58000000    56.68000000    16.18000000
   H      7.56000000    55.51000000    15.43000000
   H      7.34000000    54.64000000    17.67000000
   H      8.97000000    54.82000000    17.30000000
   H      8.16000000    55.87000000    18.36000000
   N      1.32000000    58.65000000    17.84000000
   C      0.24000000    59.54000000    17.47000000
   C      0.06000000    60.67000000    18.48000000
   O     -0.41000000    61.72000000    18.06000000
   C     -1.12000000    58.88000000    17.23000000
   C     -1.70000000    58.20000000    18.46000000
   O     -1.01000000    57.56000000    19.29000000
   O     -2.95000000    58.26000000    18.56000000
   H      1.16000000    57.88000000    18.47000000
   H      0.37000000    60.06000000    16.52000000
   H     -1.00000000    58.11000000    16.47000000
   H     -1.77000000    59.61000000    16.76000000
   N      0.48000000    60.47000000    19.74000000
   C      0.34000000    61.58000000    20.66000000
   C     -1.05000000    61.84000000    21.24000000
   O     -1.50000000    62.98000000    21.28000000
   H      0.90000000    59.62000000    20.08000000
   H      0.74000000    62.46000000    20.15000000
   H      0.96000000    61.43000000    21.54000000
   N     -1.76000000    60.76000000    21.58000000
   C     -2.99000000    60.76000000    22.35000000
   C     -2.64000000    60.90000000    23.82000000
   O     -3.50000000    61.34000000    24.58000000
   C     -3.92000000    59.57000000    22.12000000
   C     -3.32000000    58.18000000    22.31000000
   O     -2.09000000    57.98000000    22.45000000
   O     -4.02000000    57.14000000    22.27000000
   H     -1.26000000    59.90000000    21.42000000
   H     -3.58000000    61.64000000    22.09000000
   H     -4.37000000    59.60000000    21.13000000
   H     -4.80000000    59.65000000    22.75000000
   N     -1.38000000    60.75000000    24.25000000
   C     -0.91000000    60.77000000    25.62000000
   C     -0.88000000    59.41000000    26.29000000
   O     -0.96000000    59.38000000    27.52000000
   H     -0.68000000    60.30000000    23.68000000
   H     -1.57000000    61.41000000    26.22000000
   H      0.00000000    61.37000000    25.69000000
   N     -0.76000000    58.32000000    25.53000000
   C     -0.89000000    56.93000000    25.94000000
   C     -0.02000000    56.04000000    25.06000000
   O     -0.16000000    56.14000000    23.85000000
   C     -2.31000000    56.38000000    25.91000000
   C     -2.83000000    56.36000000    27.34000000
   O     -3.21000000    57.21000000    25.21000000
   H     -0.55000000    58.59000000    24.58000000
   H     -0.53000000    56.87000000    26.96000000
   H     -2.18000000    55.42000000    25.41000000
   H     -2.83000000    57.28000000    24.33000000
   H     -2.82000000    57.33000000    27.84000000
   H     -3.87000000    56.06000000    27.38000000
   H     -2.11000000    55.85000000    27.99000000
   N      0.77000000    55.13000000    25.64000000
   C      1.59000000    54.12000000    24.99000000
   C      0.90000000    52.77000000    24.93000000
   O      0.60000000    52.20000000    25.97000000
   C      3.00000000    54.05000000    25.56000000
   C      3.65000000    55.42000000    25.73000000
   C      3.89000000    53.11000000    24.75000000
   C      4.93000000    55.37000000    26.56000000
   H      0.79000000    55.07000000    26.65000000
   H      1.80000000    54.53000000    24.00000000
   H      2.94000000    53.50000000    26.50000000
   H      3.02000000    56.14000000    26.24000000
   H      3.84000000    55.91000000    24.78000000
   H      3.38000000    52.17000000    24.56000000
   H      4.14000000    53.66000000    23.84000000
   H      4.74000000    52.81000000    25.37000000
   H      4.70000000    55.03000000    27.57000000
   H      5.65000000    54.68000000    26.12000000
   H      5.34000000    56.38000000    26.52000000
   N      0.57000000    52.19000000    23.77000000
   C      0.07000000    50.84000000    23.63000000
   C      1.13000000    49.74000000    23.71000000
   O      2.33000000    49.97000000    23.57000000
   C     -0.83000000    50.67000000    22.42000000
   C     -1.80000000    51.83000000    22.19000000
   O     -0.05000000    50.59000000    21.25000000
   H      0.93000000    52.64000000    22.93000000
   H     -0.48000000    50.71000000    24.56000000
   H     -1.51000000    49.82000000    22.55000000
   H     -0.62000000    50.37000000    20.51000000
   H     -1.21000000    52.74000000    22.10000000
   H     -2.34000000    51.61000000    21.27000000
   H     -2.45000000    52.00000000    23.04000000
   N      0.68000000    48.49000000    23.84000000
   C      1.55000000    47.34000000    23.74000000
   C      2.38000000    47.39000000    22.46000000
   O      3.61000000    47.41000000    22.51000000
   C      0.62000000    46.13000000    23.65000000
   C      1.47000000    44.87000000    23.58000000
   O     -0.18000000    46.05000000    24.81000000
   H     -0.32000000    48.42000000    23.73000000
   H      2.21000000    47.27000000    24.61000000
   H      0.06000000    46.17000000    22.72000000
   H     -0.82000000    46.77000000    24.86000000
   H      2.06000000    44.89000000    22.67000000
   H      2.12000000    44.74000000    24.45000000
   H      0.78000000    44.03000000    23.49000000
   N      1.80000000    47.73000000    21.31000000
   C      2.42000000    47.77000000    20.00000000
   C      3.40000000    48.92000000    19.87000000
   O      4.45000000    48.81000000    19.23000000
   C      1.41000000    47.79000000    18.86000000
   C      1.98000000    47.10000000    17.62000000
   C      1.09000000    47.39000000    16.41000000
   C     -0.27000000    46.70000000    16.37000000
   N     -0.14000000    45.24000000    16.21000000
   H      0.79000000    47.75000000    21.28000000
   H      3.00000000    46.84000000    19.95000000
   H      1.20000000    48.85000000    18.73000000
   H      0.48000000    47.39000000    19.27000000
   H      2.11000000    46.02000000    17.70000000
   H      2.93000000    47.55000000    17.34000000
   H      1.68000000    47.26000000    15.50000000
   H      0.95000000    48.47000000    16.37000000
   H     -1.00000000    47.18000000    15.72000000
   H     -0.72000000    46.79000000    17.36000000
   H      0.16000000    44.95000000    15.29000000
   H      0.48000000    44.91000000    16.94000000
   H     -1.03000000    44.79000000    16.37000000
   N      3.13000000    50.13000000    20.37000000
   C      4.04000000    51.26000000    20.33000000
   C      5.26000000    51.13000000    21.22000000
   O      6.31000000    51.73000000    20.97000000
   C      3.36000000    52.55000000    20.76000000
   C      2.16000000    52.93000000    19.89000000
   C      1.61000000    54.22000000    20.47000000
   O      1.61000000    55.21000000    19.71000000
   O      1.03000000    54.34000000    21.58000000
   H      2.33000000    50.27000000    20.98000000
   H      4.25000000    51.54000000    19.30000000
   H      4.17000000    53.27000000    20.63000000
   H      3.12000000    52.42000000    21.81000000
   H      1.48000000    52.08000000    19.78000000
   H      2.48000000    53.02000000    18.86000000
   N      5.22000000    50.48000000    22.39000000
   C      6.31000000    50.03000000    23.22000000
   H      7.13600000    50.73700000    23.14800000
   H      5.97600000    49.96600000    24.25600000
   H      6.64300000    49.04800000    22.88300000
   H      4.33000000    50.11000000    22.69000000
  Ca     -0.64400000    56.16000000    21.30000000
   O     -2.80400000    54.79000000    22.51000000
   H     -3.33400000    55.58000000    22.54000000
   H     -3.38400000    54.10000000    22.84000000
   O     -1.41400000    54.34000000    19.41000000
   H     -1.72400000    53.45000000    19.29000000
   H     -1.19400000    54.64000000    18.52000000

Ca 1.00



