%chk=loop3.holoCaM.run78.water2.chk
%nprocshared=20
%mem=10GB
%nosave
#b3lyp/svp scf=(tight,noincore,xqc) Test 
#IOP(5/87=12) Density=Current Pop=(MK,readradii) iop(6/33=2) iop(6/42=6)

loop3.holoCaM.run78.water2 

   0  1 
   C     60.64000000    63.30000000    42.84000000
   C     60.68000000    64.38000000    43.91000000
   O     61.54000000    64.50000000    44.78000000
   H     60.49200000    63.76200000    41.86400000
   H     61.58100000    62.75100000    42.84200000
   H     59.81800000    62.61400000    43.04600000
   N     59.69000000    65.28000000    43.87000000
   C     59.53000000    66.31000000    44.87000000
   C     58.90000000    65.66000000    46.10000000
   O     57.74000000    65.24000000    46.09000000
   C     58.74000000    67.45000000    44.24000000
   C     58.42000000    68.69000000    45.06000000
   O     58.84000000    68.72000000    46.23000000
   O     57.70000000    69.63000000    44.64000000
   H     59.03000000    65.14000000    43.12000000
   H     60.50000000    66.68000000    45.21000000
   H     57.81000000    67.02000000    43.86000000
   H     59.14000000    67.80000000    43.29000000
   N     59.68000000    65.74000000    47.17000000
   C     59.32000000    65.27000000    48.50000000
   C     58.20000000    66.08000000    49.13000000
   O     57.11000000    65.57000000    49.40000000
   C     60.52000000    65.30000000    49.44000000
   C     60.37000000    64.83000000    50.88000000
   C     61.76000000    64.73000000    51.51000000
   C     61.62000000    64.31000000    52.97000000
   N     62.88000000    64.06000000    53.69000000
   H     60.54000000    66.27000000    47.16000000
   H     58.83000000    64.30000000    48.44000000
   H     60.89000000    66.32000000    49.51000000
   H     61.30000000    64.71000000    48.96000000
   H     59.78000000    63.92000000    50.82000000
   H     59.84000000    65.58000000    51.47000000
   H     62.34000000    65.65000000    51.53000000
   H     62.27000000    63.91000000    51.00000000
   H     61.06000000    63.37000000    52.97000000
   H     60.99000000    65.06000000    53.45000000
   H     62.66000000    64.00000000    54.68000000
   H     63.30000000    63.16000000    53.52000000
   H     63.45000000    64.88000000    53.56000000
   N     58.40000000    67.39000000    49.27000000
   C     57.54000000    68.26000000    50.05000000
   C     56.32000000    68.86000000    49.38000000
   O     55.40000000    69.28000000    50.07000000
   C     58.39000000    69.34000000    50.72000000
   C     59.32000000    69.95000000    49.69000000
   O     58.84000000    70.89000000    49.02000000
   O     60.44000000    69.43000000    49.48000000
   H     59.32000000    67.72000000    49.00000000
   H     57.18000000    67.58000000    50.82000000
   H     58.96000000    68.80000000    51.48000000
   H     57.81000000    70.16000000    51.14000000
   N     56.35000000    68.95000000    48.04000000
   C     55.25000000    69.47000000    47.26000000
   C     55.49000000    70.79000000    46.53000000
   O     54.66000000    71.21000000    45.74000000
   H     57.21000000    68.70000000    47.59000000
   H     54.36000000    69.69000000    47.86000000
   H     54.94000000    68.68000000    46.57000000
   N     56.61000000    71.48000000    46.78000000
   C     56.79000000    72.87000000    46.43000000
   C     56.94000000    73.19000000    44.95000000
   O     56.70000000    74.32000000    44.53000000
   C     57.80000000    73.56000000    47.34000000
   C     59.22000000    73.24000000    46.90000000
   N     60.10000000    74.22000000    47.11000000
   O     59.54000000    72.23000000    46.27000000
   H     57.20000000    71.05000000    47.49000000
   H     55.90000000    73.43000000    46.71000000
   H     57.67000000    73.38000000    48.41000000
   H     57.57000000    74.62000000    47.18000000
   H     59.66000000    75.08000000    47.41000000
   H     61.09000000    74.12000000    46.92000000
   N     57.10000000    72.17000000    44.09000000
   C     57.45000000    72.26000000    42.69000000
   C     58.93000000    72.39000000    42.36000000
   O     59.28000000    72.87000000    41.29000000
   H     57.23000000    71.28000000    44.54000000
   H     56.87000000    73.01000000    42.15000000
   H     57.18000000    71.33000000    42.20000000
   N     59.74000000    71.92000000    43.31000000
   C     61.18000000    71.98000000    43.14000000
   C     61.85000000    70.72000000    43.66000000
   O     61.30000000    70.01000000    44.50000000
   C     61.83000000    73.25000000    43.69000000
   C     61.36000000    74.61000000    43.23000000
   C     60.22000000    75.19000000    43.79000000
   C     62.13000000    75.38000000    42.35000000
   C     59.92000000    76.53000000    43.51000000
   C     61.88000000    76.72000000    42.01000000
   C     60.77000000    77.28000000    42.67000000
   O     60.59000000    78.62000000    42.47000000
   H     59.28000000    71.71000000    44.19000000
   H     61.44000000    71.97000000    42.08000000
   H     62.91000000    73.15000000    43.74000000
   H     61.53000000    73.13000000    44.74000000
   H     59.62000000    74.65000000    44.51000000
   H     62.97000000    74.90000000    41.88000000
   H     59.07000000    77.03000000    43.95000000
   H     62.49000000    77.34000000    41.37000000
   H     61.27000000    78.97000000    41.89000000
   N     62.99000000    70.40000000    43.05000000
   C     63.76000000    69.22000000    43.41000000
   C     65.21000000    69.62000000    43.60000000
   O     65.76000000    70.33000000    42.76000000
   C     63.64000000    68.13000000    42.35000000
   C     62.20000000    67.71000000    42.05000000
   C     64.42000000    66.84000000    42.58000000
   C     61.94000000    67.25000000    40.62000000
   H     63.19000000    70.86000000    42.17000000
   H     63.47000000    68.82000000    44.38000000
   H     64.12000000    68.54000000    41.46000000
   H     61.49000000    68.52000000    42.22000000
   H     61.97000000    66.84000000    42.65000000
   H     64.26000000    66.45000000    43.58000000
   H     64.14000000    66.01000000    41.93000000
   H     65.48000000    67.06000000    42.41000000
   H     62.48000000    66.32000000    40.48000000
   H     60.87000000    67.05000000    40.53000000
   H     62.15000000    68.04000000    39.90000000
   N     65.85000000    69.15000000    44.68000000
   C     67.26000000    69.33000000    44.95000000
   C     67.99000000    68.00000000    44.84000000
   O     67.34000000    66.95000000    44.88000000
   C     67.45000000    69.93000000    46.34000000
   O     66.95000000    68.87000000    47.12000000
   H     65.29000000    68.75000000    45.42000000
   H     67.65000000    70.07000000    44.25000000
   H     66.78000000    70.78000000    46.48000000
   H     68.47000000    70.26000000    46.56000000
   H     66.90000000    69.07000000    48.06000000
   N     69.32000000    67.94000000    44.80000000
   C     70.21000000    66.79000000    44.82000000
   C     69.80000000    65.81000000    45.91000000
   O     69.91000000    64.61000000    45.71000000
   C     71.60000000    67.37000000    45.04000000
   H     69.82000000    68.81000000    44.77000000
   H     70.09000000    66.29000000    43.86000000
   H     71.95000000    67.93000000    44.18000000
   H     71.59000000    67.96000000    45.96000000
   H     72.32000000    66.55000000    45.12000000
   N     69.39000000    66.36000000    47.06000000
   C     69.10000000    65.59000000    48.25000000
   C     67.75000000    64.89000000    48.19000000
   O     67.64000000    63.70000000    48.48000000
   C     69.24000000    66.46000000    49.49000000
   H     69.36000000    67.37000000    47.05000000
   H     69.95000000    64.91000000    48.33000000
   H     70.18000000    67.01000000    49.48000000
   H     68.50000000    67.24000000    49.65000000
   H     69.23000000    65.86000000    50.40000000
   N     66.72000000    65.58000000    47.69000000
   C     65.49000000    64.99000000    47.20000000
   C     65.75000000    64.03000000    46.06000000
   O     65.15000000    62.95000000    46.12000000
   C     64.58000000    66.13000000    46.75000000
   C     63.93000000    66.88000000    47.91000000
   C     63.00000000    67.95000000    47.35000000
   O     63.47000000    69.03000000    46.93000000
   O     61.78000000    67.72000000    47.24000000
   H     66.86000000    66.53000000    47.39000000
   H     65.00000000    64.52000000    48.06000000
   H     63.79000000    65.71000000    46.11000000
   H     65.17000000    66.80000000    46.13000000
   H     64.72000000    67.41000000    48.43000000
   H     63.34000000    66.19000000    48.51000000
   N     66.62000000    64.28000000    45.07000000
   C     66.89000000    63.32000000    44.02000000
   H     67.91300000    62.95600000    44.11600000
   H     66.19700000    62.48300000    44.10500000
   H     66.76500000    63.79800000    43.04900000
   H     67.07000000    65.17000000    45.00000000
  Ca     60.83000000    70.09000000    47.06000000
   O     61.94000000    71.91000000    48.85000000
   H     61.53000000    72.07000000    49.70000000
   H     62.88000000    71.98000000    49.02000000
   O     63.13000000    71.61000000    46.25000000
   H     63.59000000    70.78000000    46.34000000
   H     63.82000000    72.26000000    46.13000000

Ca 1.00



