%chk=loop4.holoCaM-CaMKII.run50.water2.chk
%nprocshared=20
%mem=10GB
%nosave
#b3lyp/svp scf=(tight,noincore,xqc) Test 
#IOP(5/87=12) Density=Current Pop=(MK,readradii) iop(6/33=2) iop(6/42=6)

loop4.holoCaM-CaMKII.run50.water2 

   -3  1 
   C     38.73000000    64.15000000    20.61000000
   C     39.36000000    64.53000000    21.94000000
   O     38.91000000    65.51000000    22.53000000
   H     37.83400000    64.74900000    20.44900000
   H     39.44000000    64.33600000    19.80400000
   H     38.46300000    63.09300000    20.62300000
   N     40.36000000    63.85000000    22.51000000
   C     41.12000000    64.22000000    23.68000000
   C     42.22000000    65.24000000    23.43000000
   O     43.16000000    65.04000000    22.66000000
   C     41.74000000    62.96000000    24.29000000
   C     42.25000000    63.05000000    25.73000000
   O     43.32000000    62.43000000    25.89000000
   O     41.74000000    63.76000000    26.62000000
   H     40.75000000    63.08000000    21.98000000
   H     40.49000000    64.63000000    24.46000000
   H     42.56000000    62.64000000    23.65000000
   H     40.90000000    62.27000000    24.33000000
   N     41.97000000    66.40000000    24.04000000
   C     42.70000000    67.62000000    23.72000000
   C     43.86000000    67.82000000    24.68000000
   O     44.94000000    68.21000000    24.24000000
   C     41.77000000    68.82000000    23.75000000
   C     40.87000000    68.63000000    22.53000000
   C     42.52000000    70.15000000    23.67000000
   C     39.92000000    69.80000000    22.31000000
   H     41.12000000    66.45000000    24.57000000
   H     43.07000000    67.53000000    22.70000000
   H     41.26000000    68.70000000    24.71000000
   H     40.26000000    67.73000000    22.62000000
   H     41.49000000    68.55000000    21.63000000
   H     41.76000000    70.91000000    23.88000000
   H     43.34000000    70.27000000    24.37000000
   H     43.03000000    70.25000000    22.72000000
   H     39.14000000    69.46000000    21.63000000
   H     39.43000000    70.20000000    23.19000000
   H     40.35000000    70.66000000    21.80000000
   N     43.61000000    67.70000000    25.99000000
   C     44.65000000    67.89000000    26.98000000
   C     45.50000000    66.66000000    27.26000000
   O     46.56000000    66.74000000    27.89000000
   C     44.15000000    68.54000000    28.26000000
   C     43.01000000    67.78000000    28.92000000
   O     42.65000000    66.62000000    28.61000000
   O     42.16000000    68.44000000    29.56000000
   H     42.73000000    67.32000000    26.32000000
   H     45.43000000    68.56000000    26.63000000
   H     43.81000000    69.56000000    28.06000000
   H     44.96000000    68.58000000    28.98000000
   N     45.08000000    65.51000000    26.72000000
   C     45.88000000    64.31000000    26.84000000
   C     45.79000000    63.54000000    28.15000000
   O     46.41000000    63.90000000    29.15000000
   H     44.14000000    65.50000000    26.34000000
   H     46.93000000    64.51000000    26.65000000
   H     45.62000000    63.64000000    26.01000000
   N     44.94000000    62.52000000    28.26000000
   C     44.74000000    61.63000000    29.38000000
   C     44.04000000    60.35000000    28.95000000
   O     44.24000000    59.28000000    29.52000000
   C     43.91000000    62.25000000    30.51000000
   C     42.63000000    63.00000000    30.17000000
   O     42.57000000    64.24000000    30.27000000
   O     41.61000000    62.36000000    29.84000000
   H     44.51000000    62.27000000    27.38000000
   H     45.69000000    61.25000000    29.76000000
   H     44.54000000    63.04000000    30.93000000
   H     43.63000000    61.49000000    31.23000000
   N     43.23000000    60.46000000    27.89000000
   C     42.55000000    59.38000000    27.21000000
   C     41.06000000    59.26000000    27.53000000
   O     40.45000000    58.39000000    26.92000000
   H     42.96000000    61.38000000    27.56000000
   H     43.00000000    58.45000000    27.57000000
   H     42.66000000    59.54000000    26.14000000
   N     40.44000000    60.24000000    28.18000000
   C     38.99000000    60.32000000    28.28000000
   C     38.51000000    61.69000000    27.82000000
   O     39.09000000    62.70000000    28.20000000
   C     38.48000000    60.05000000    29.69000000
   C     38.72000000    58.64000000    30.22000000
   C     37.94000000    58.47000000    31.52000000
   N     38.48000000    58.89000000    32.66000000
   O     36.86000000    57.89000000    31.63000000
   H     41.05000000    60.98000000    28.50000000
   H     38.49000000    59.61000000    27.61000000
   H     37.40000000    60.05000000    29.52000000
   H     38.75000000    60.87000000    30.36000000
   H     39.78000000    58.63000000    30.48000000
   H     38.38000000    57.86000000    29.55000000
   H     39.33000000    59.43000000    32.63000000
   H     38.11000000    58.55000000    33.54000000
   N     37.45000000    61.67000000    27.01000000
   C     36.92000000    62.92000000    26.51000000
   C     35.90000000    63.57000000    27.44000000
   O     34.91000000    62.93000000    27.78000000
   C     36.35000000    62.72000000    25.11000000
   C     35.53000000    63.86000000    24.51000000
   C     37.51000000    62.32000000    24.20000000
   H     37.00000000    60.83000000    26.70000000
   H     37.67000000    63.70000000    26.50000000
   H     35.75000000    61.82000000    25.18000000
   H     35.08000000    63.51000000    23.58000000
   H     34.73000000    64.10000000    25.21000000
   H     36.27000000    64.65000000    24.34000000
   H     37.16000000    62.10000000    23.19000000
   H     38.25000000    63.12000000    24.13000000
   H     37.93000000    61.37000000    24.52000000
   N     36.20000000    64.77000000    27.93000000
   C     35.35000000    65.62000000    28.74000000
   C     34.37000000    66.32000000    27.81000000
   O     34.56000000    66.49000000    26.61000000
   C     36.27000000    66.58000000    29.49000000
   C     35.43000000    67.23000000    30.58000000
   N     36.00000000    68.30000000    31.14000000
   O     34.26000000    66.95000000    30.81000000
   H     37.14000000    65.11000000    27.75000000
   H     34.87000000    64.89000000    29.39000000
   H     36.66000000    67.28000000    28.75000000
   H     37.07000000    66.07000000    30.03000000
   H     36.94000000    68.60000000    30.91000000
   H     35.46000000    68.83000000    31.80000000
   N     33.19000000    66.75000000    28.26000000
   C     32.13000000    67.41000000    27.51000000
   C     32.56000000    68.66000000    26.77000000
   O     32.32000000    68.77000000    25.57000000
   C     30.99000000    67.57000000    28.51000000
   C     29.85000000    68.28000000    27.81000000
   C     29.39000000    67.97000000    26.52000000
   C     29.17000000    69.29000000    28.51000000
   C     28.36000000    68.71000000    25.93000000
   C     28.18000000    70.07000000    27.90000000
   C     27.74000000    69.79000000    26.59000000
   O     26.78000000    70.54000000    25.98000000
   H     33.07000000    66.60000000    29.25000000
   H     31.89000000    66.67000000    26.75000000
   H     31.46000000    68.06000000    29.36000000
   H     30.64000000    66.57000000    28.73000000
   H     29.92000000    67.24000000    25.93000000
   H     29.52000000    69.66000000    29.46000000
   H     28.07000000    68.52000000    24.91000000
   H     27.78000000    70.93000000    28.42000000
   H     26.37000000    71.26000000    26.46000000
   N     33.36000000    69.52000000    27.41000000
   C     34.01000000    70.65000000    26.77000000
   C     34.96000000    70.28000000    25.64000000
   O     35.14000000    71.03000000    24.68000000
   C     34.72000000    71.53000000    27.79000000
   C     35.72000000    70.77000000    28.64000000
   C     36.84000000    71.63000000    29.22000000
   O     38.00000000    71.40000000    28.83000000
   O     36.54000000    72.45000000    30.11000000
   H     33.59000000    69.22000000    28.34000000
   H     33.26000000    71.26000000    26.27000000
   H     33.93000000    72.04000000    28.35000000
   H     35.29000000    72.30000000    27.26000000
   H     36.23000000    70.08000000    27.97000000
   H     35.29000000    70.21000000    29.47000000
   N     35.60000000    69.11000000    25.65000000
   C     36.37000000    68.57000000    24.55000000
   C     35.44000000    68.07000000    23.45000000
   O     35.76000000    68.28000000    22.29000000
   C     37.31000000    67.51000000    25.12000000
   C     38.31000000    68.09000000    26.11000000
   C     39.11000000    66.99000000    26.78000000
   O     40.35000000    66.90000000    26.66000000
   O     38.56000000    66.11000000    27.48000000
   H     35.59000000    68.60000000    26.53000000
   H     37.06000000    69.33000000    24.18000000
   H     37.95000000    67.13000000    24.31000000
   H     36.78000000    66.73000000    25.66000000
   H     37.76000000    68.72000000    26.82000000
   H     38.98000000    68.75000000    25.56000000
   N     34.32000000    67.39000000    23.71000000
   C     33.35000000    66.84000000    22.77000000
   H     32.47800000    67.49300000    22.72500000
   H     33.80200000    66.76900000    21.78100000
   H     33.04400000    65.84800000    23.10200000
   H     34.10000000    67.16000000    24.66000000
  Ca     40.72000000    64.98000000    28.61000000
   O     40.11000000    67.12000000    30.44000000
   H     40.90000000    67.57000000    30.13000000
   H     39.55000000    67.83000000    30.77000000
   O     39.56000000    63.88000000    30.78000000
   H     39.95000000    63.00000000    30.78000000
   H     39.52000000    64.12000000    31.71000000

Ca 1.00



