%chk=loop3.apoCaM-CA-Ng.Init295.run4.water3.chk
%nprocshared=20
%mem=10GB
%nosave
#b3lyp/svp scf=(tight,noincore,xqc) Test 
#IOP(5/87=12) Density=Current Pop=(MK,readradii) iop(6/33=2) iop(6/42=6)

loop3.apoCaM-CA-Ng.Init295.run4.water3 

   0  1 
   C     58.65000000    36.47000000    60.31000000
   C     58.99000000    35.98000000    61.71000000
   O     58.69000000    34.84000000    62.06000000
   H     57.82900000    37.18500000    60.36500000
   H     59.52300000    36.95300000    59.87200000
   H     58.35300000    35.62400000    59.69000000
   N     59.63000000    36.78000000    62.56000000
   C     59.87000000    36.45000000    63.95000000
   C     59.80000000    37.58000000    64.97000000
   O     60.27000000    38.69000000    64.73000000
   C     61.12000000    35.58000000    64.03000000
   C     61.29000000    34.93000000    65.40000000
   O     61.33000000    33.69000000    65.56000000
   O     61.48000000    35.67000000    66.38000000
   H     59.67000000    37.75000000    62.30000000
   H     59.12000000    35.71000000    64.22000000
   H     61.99000000    36.19000000    63.80000000
   H     61.06000000    34.82000000    63.25000000
   N     59.21000000    37.29000000    66.13000000
   C     58.77000000    38.26000000    67.10000000
   C     59.80000000    38.54000000    68.19000000
   O     59.59000000    39.51000000    68.90000000
   C     57.45000000    37.75000000    67.68000000
   C     56.36000000    37.87000000    66.62000000
   C     54.97000000    37.68000000    67.23000000
   C     53.92000000    37.95000000    66.15000000
   N     52.63000000    38.40000000    66.68000000
   H     58.85000000    36.35000000    66.28000000
   H     58.50000000    39.21000000    66.65000000
   H     57.22000000    38.41000000    68.51000000
   H     57.49000000    36.71000000    67.99000000
   H     56.57000000    37.18000000    65.80000000
   H     56.45000000    38.86000000    66.16000000
   H     54.80000000    38.42000000    68.00000000
   H     54.84000000    36.72000000    67.73000000
   H     53.66000000    37.02000000    65.65000000
   H     54.37000000    38.59000000    65.39000000
   H     51.86000000    38.54000000    66.05000000
   H     52.28000000    37.72000000    67.34000000
   H     52.82000000    39.28000000    67.15000000
   N     60.86000000    37.74000000    68.32000000
   C     62.14000000    38.18000000    68.84000000
   C     63.09000000    38.55000000    67.71000000
   O     64.10000000    39.19000000    67.99000000
   C     62.77000000    37.26000000    69.89000000
   C     62.98000000    35.86000000    69.31000000
   O     63.76000000    35.70000000    68.35000000
   O     62.31000000    34.91000000    69.78000000
   H     60.84000000    36.93000000    67.71000000
   H     62.00000000    39.17000000    69.28000000
   H     62.14000000    37.34000000    70.78000000
   H     63.70000000    37.73000000    70.18000000
   N     62.83000000    38.15000000    66.46000000
   C     63.66000000    38.40000000    65.30000000
   C     64.87000000    37.50000000    65.07000000
   O     65.48000000    37.66000000    64.01000000
   H     62.05000000    37.52000000    66.34000000
   H     63.87000000    39.47000000    65.24000000
   H     63.01000000    38.23000000    64.44000000
   N     65.11000000    36.54000000    65.95000000
   C     65.88000000    35.37000000    65.55000000
   C     64.93000000    34.23000000    65.21000000
   O     64.44000000    33.56000000    66.11000000
   C     66.83000000    35.03000000    66.70000000
   C     67.67000000    33.81000000    66.36000000
   N     68.44000000    33.95000000    65.27000000
   O     67.54000000    32.82000000    67.08000000
   H     64.67000000    36.52000000    66.86000000
   H     66.58000000    35.57000000    64.74000000
   H     66.28000000    34.85000000    67.61000000
   H     67.42000000    35.95000000    66.80000000
   H     68.45000000    34.75000000    64.65000000
   H     68.95000000    33.11000000    65.06000000
   N     64.82000000    34.07000000    63.89000000
   C     64.02000000    33.01000000    63.32000000
   C     64.32000000    31.53000000    63.57000000
   O     63.79000000    30.68000000    62.86000000
   H     65.11000000    34.77000000    63.21000000
   H     64.04000000    33.11000000    62.23000000
   H     62.95000000    33.02000000    63.53000000
   N     65.05000000    31.30000000    64.67000000
   C     64.99000000    30.03000000    65.37000000
   C     63.74000000    29.89000000    66.22000000
   O     63.30000000    30.86000000    66.82000000
   C     66.27000000    29.82000000    66.17000000
   C     66.66000000    28.36000000    66.28000000
   C     66.93000000    27.61000000    65.12000000
   C     66.78000000    27.75000000    67.53000000
   C     67.13000000    26.23000000    65.22000000
   C     67.15000000    26.40000000    67.61000000
   C     67.30000000    25.59000000    66.46000000
   O     67.82000000    24.34000000    66.61000000
   H     65.18000000    32.07000000    65.31000000
   H     64.90000000    29.28000000    64.58000000
   H     66.17000000    30.27000000    67.16000000
   H     67.11000000    30.24000000    65.63000000
   H     67.03000000    28.04000000    64.14000000
   H     66.83000000    28.34000000    68.43000000
   H     67.33000000    25.65000000    64.34000000
   H     67.18000000    25.94000000    68.58000000
   H     67.89000000    24.04000000    67.52000000
   N     63.16000000    28.68000000    66.22000000
   C     61.92000000    28.19000000    66.79000000
   C     61.95000000    28.19000000    68.32000000
   O     62.66000000    28.88000000    69.04000000
   C     60.69000000    28.84000000    66.17000000
   C     60.75000000    28.84000000    64.65000000
   C     60.28000000    30.21000000    66.70000000
   C     59.37000000    28.90000000    64.01000000
   H     63.61000000    27.99000000    65.63000000
   H     62.01000000    27.19000000    66.38000000
   H     59.90000000    28.16000000    66.51000000
   H     61.21000000    27.89000000    64.37000000
   H     61.38000000    29.63000000    64.23000000
   H     59.29000000    30.56000000    66.40000000
   H     60.40000000    30.18000000    67.78000000
   H     60.98000000    30.93000000    66.28000000
   H     58.90000000    27.94000000    64.21000000
   H     58.76000000    29.70000000    64.44000000
   H     59.48000000    29.09000000    62.94000000
   N     61.00000000    27.37000000    68.78000000
   C     60.78000000    27.03000000    70.17000000
   C     60.62000000    25.56000000    70.50000000
   O     61.03000000    25.10000000    71.56000000
   C     59.55000000    27.82000000    70.60000000
   O     58.44000000    27.36000000    69.85000000
   H     60.46000000    26.88000000    68.08000000
   H     61.64000000    27.44000000    70.71000000
   H     59.72000000    28.88000000    70.42000000
   H     59.36000000    27.59000000    71.64000000
   H     57.65000000    27.79000000    70.20000000
   N     60.18000000    24.77000000    69.51000000
   C     59.99000000    23.34000000    69.54000000
   C     59.41000000    22.78000000    70.83000000
   O     60.02000000    21.99000000    71.55000000
   C     61.19000000    22.54000000    69.04000000
   H     59.98000000    25.14000000    68.59000000
   H     59.21000000    23.14000000    68.80000000
   H     61.54000000    22.82000000    68.05000000
   H     61.99000000    22.54000000    69.78000000
   H     60.91000000    21.49000000    68.93000000
   N     58.15000000    22.98000000    71.20000000
   C     57.23000000    23.91000000    70.58000000
   C     56.15000000    23.23000000    69.75000000
   O     55.65000000    22.26000000    70.33000000
   C     56.70000000    24.80000000    71.70000000
   H     57.82000000    22.71000000    72.11000000
   H     57.78000000    24.57000000    69.91000000
   H     55.96000000    25.46000000    71.25000000
   H     56.11000000    24.20000000    72.40000000
   H     57.50000000    25.26000000    72.28000000
   N     55.87000000    23.50000000    68.48000000
   C     56.40000000    24.61000000    67.71000000
   C     56.72000000    24.07000000    66.32000000
   O     57.49000000    24.80000000    65.70000000
   C     55.34000000    25.71000000    67.61000000
   C     55.85000000    26.85000000    66.75000000
   C     54.87000000    27.99000000    67.01000000
   O     54.84000000    28.51000000    68.14000000
   O     54.13000000    28.36000000    66.07000000
   H     55.09000000    23.01000000    68.07000000
   H     57.34000000    24.97000000    68.13000000
   H     55.13000000    26.09000000    68.62000000
   H     54.47000000    25.33000000    67.07000000
   H     55.94000000    26.65000000    65.68000000
   H     56.85000000    27.14000000    67.10000000
   N     56.31000000    22.87000000    65.91000000
   C     56.74000000    22.38000000    64.62000000
   H     57.76500000    22.01800000    64.69300000
   H     56.08900000    21.56500000    64.30500000
   H     56.69200000    23.18800000    63.88900000
   H     55.71000000    22.33000000    66.52000000
  Ca     62.45000000    33.12000000    67.74000000
   O     61.51000000    31.72000000    69.72000000
   H     60.84000000    32.12000000    70.27000000
   H     61.57000000    30.82000000    70.03000000
   O     59.73000000    33.18000000    68.18000000
   H     59.31000000    33.54000000    67.40000000
   H     59.02000000    32.80000000    68.69000000
   O     64.78000000    32.93000000    69.07000000
   H     64.79000000    32.99000000    70.02000000
   H     65.09000000    32.04000000    68.88000000

Ca 1.00



