%chk=loop3.apoCaM-CA-Ng.Init295.run6.water3.chk
%nprocshared=20
%mem=10GB
%nosave
#b3lyp/svp scf=(tight,noincore,xqc) Test 
#IOP(5/87=12) Density=Current Pop=(MK,readradii) iop(6/33=2) iop(6/42=6)

loop3.apoCaM-CA-Ng.Init295.run6.water3 

   0  1 
   C     63.03000000    42.15000000    76.91000000
   C     62.63000000    41.71000000    78.31000000
   O     61.72000000    40.90000000    78.43000000
   H     64.06200000    41.85700000    76.71900000
   H     62.37600000    41.67500000    76.17900000
   H     62.94000000    43.23300000    76.82900000
   N     63.43000000    42.00000000    79.34000000
   C     63.51000000    41.41000000    80.66000000
   C     63.53000000    42.40000000    81.82000000
   O     64.21000000    43.42000000    81.73000000
   C     64.71000000    40.45000000    80.66000000
   C     64.78000000    39.63000000    81.93000000
   O     64.11000000    38.57000000    81.90000000
   O     65.29000000    40.03000000    83.00000000
   H     64.23000000    42.56000000    79.05000000
   H     62.60000000    40.84000000    80.84000000
   H     65.66000000    40.97000000    80.59000000
   H     64.71000000    39.90000000    79.72000000
   N     62.87000000    42.20000000    82.96000000
   C     62.82000000    43.14000000    84.06000000
   C     64.13000000    43.39000000    84.79000000
   O     64.37000000    44.41000000    85.43000000
   C     61.64000000    42.77000000    84.94000000
   C     60.32000000    42.85000000    84.18000000
   C     59.18000000    42.59000000    85.16000000
   C     57.90000000    42.56000000    84.32000000
   N     56.70000000    42.37000000    85.14000000
   H     62.21000000    41.43000000    82.99000000
   H     62.62000000    44.16000000    83.71000000
   H     61.64000000    43.45000000    85.80000000
   H     61.86000000    41.79000000    85.37000000
   H     60.28000000    42.15000000    83.35000000
   H     60.28000000    43.89000000    83.86000000
   H     59.11000000    43.41000000    85.86000000
   H     59.27000000    41.66000000    85.73000000
   H     57.97000000    41.78000000    83.57000000
   H     57.69000000    43.52000000    83.85000000
   H     56.62000000    42.99000000    85.93000000
   H     55.84000000    42.44000000    84.62000000
   H     56.68000000    41.46000000    85.60000000
   N     65.12000000    42.53000000    84.54000000
   C     66.47000000    42.68000000    85.05000000
   C     67.60000000    42.42000000    84.07000000
   O     68.76000000    42.68000000    84.39000000
   C     66.59000000    41.83000000    86.31000000
   C     66.19000000    40.38000000    86.04000000
   O     66.86000000    39.57000000    85.37000000
   O     65.06000000    40.01000000    86.43000000
   H     64.93000000    41.73000000    83.95000000
   H     66.63000000    43.73000000    85.31000000
   H     65.90000000    42.27000000    87.03000000
   H     67.58000000    41.89000000    86.77000000
   N     67.25000000    42.03000000    82.84000000
   C     68.19000000    41.70000000    81.80000000
   C     68.73000000    40.28000000    81.74000000
   O     69.70000000    40.08000000    81.01000000
   H     66.26000000    41.86000000    82.69000000
   H     69.05000000    42.37000000    81.86000000
   H     67.79000000    41.92000000    80.81000000
   N     68.37000000    39.43000000    82.71000000
   C     68.72000000    38.03000000    82.63000000
   C     67.61000000    37.23000000    81.97000000
   O     66.49000000    37.26000000    82.47000000
   C     69.45000000    37.51000000    83.87000000
   C     70.37000000    36.36000000    83.51000000
   N     70.91000000    35.69000000    84.53000000
   O     70.65000000    35.90000000    82.40000000
   H     67.58000000    39.63000000    83.31000000
   H     69.55000000    37.94000000    81.92000000
   H     68.71000000    37.11000000    84.57000000
   H     69.98000000    38.32000000    84.35000000
   H     70.66000000    36.02000000    85.45000000
   H     71.35000000    34.79000000    84.41000000
   N     67.89000000    36.44000000    80.93000000
   C     66.94000000    35.66000000    80.15000000
   C     65.89000000    34.80000000    80.83000000
   O     65.02000000    34.25000000    80.17000000
   H     68.82000000    36.46000000    80.55000000
   H     67.54000000    34.99000000    79.53000000
   H     66.41000000    36.36000000    79.50000000
   N     65.97000000    34.63000000    82.15000000
   C     65.08000000    33.80000000    82.94000000
   C     63.87000000    34.59000000    83.42000000
   O     64.00000000    35.77000000    83.73000000
   C     65.85000000    33.17000000    84.10000000
   C     66.98000000    32.27000000    83.67000000
   C     68.29000000    32.74000000    83.53000000
   C     66.70000000    30.90000000    83.65000000
   C     69.33000000    31.87000000    83.16000000
   C     67.75000000    30.03000000    83.31000000
   C     69.02000000    30.52000000    82.95000000
   O     69.99000000    29.62000000    82.60000000
   H     66.48000000    35.27000000    82.74000000
   H     64.70000000    33.04000000    82.26000000
   H     65.15000000    32.55000000    84.67000000
   H     66.07000000    34.01000000    84.75000000
   H     68.53000000    33.78000000    83.70000000
   H     65.72000000    30.50000000    83.87000000
   H     70.35000000    32.21000000    83.07000000
   H     67.69000000    28.95000000    83.27000000
   H     69.57000000    28.76000000    82.70000000
   N     62.74000000    33.88000000    83.47000000
   C     61.39000000    34.17000000    83.92000000
   C     61.15000000    34.41000000    85.40000000
   O     62.07000000    34.74000000    86.14000000
   C     60.61000000    35.08000000    82.98000000
   C     61.03000000    34.77000000    81.54000000
   C     60.85000000    36.54000000    83.32000000
   C     60.02000000    35.43000000    80.61000000
   H     62.83000000    32.90000000    83.25000000
   H     60.79000000    33.28000000    83.76000000
   H     59.53000000    34.94000000    83.11000000
   H     60.92000000    33.69000000    81.47000000
   H     62.01000000    35.18000000    81.29000000
   H     60.90000000    36.74000000    84.39000000
   H     61.87000000    36.75000000    82.98000000
   H     60.11000000    37.21000000    82.88000000
   H     59.00000000    35.08000000    80.73000000
   H     60.07000000    36.52000000    80.58000000
   H     60.42000000    35.25000000    79.61000000
   N     59.92000000    34.22000000    85.89000000
   C     59.70000000    34.55000000    87.28000000
   C     58.90000000    33.62000000    88.17000000
   O     58.67000000    33.96000000    89.33000000
   C     58.91000000    35.85000000    87.14000000
   O     57.75000000    35.78000000    86.34000000
   H     59.14000000    33.97000000    85.29000000
   H     60.62000000    34.80000000    87.81000000
   H     59.56000000    36.50000000    86.56000000
   H     58.63000000    36.26000000    88.11000000
   H     57.21000000    36.56000000    86.39000000
   N     58.53000000    32.49000000    87.56000000
   C     58.01000000    31.34000000    88.27000000
   C     56.79000000    31.46000000    89.18000000
   O     56.78000000    30.91000000    90.28000000
   C     59.18000000    30.72000000    89.03000000
   H     58.46000000    32.48000000    86.55000000
   H     57.64000000    30.59000000    87.57000000
   H     58.96000000    29.66000000    89.17000000
   H     60.10000000    30.85000000    88.46000000
   H     59.46000000    31.13000000    90.00000000
   N     55.69000000    32.14000000    88.84000000
   C     55.45000000    32.91000000    87.63000000
   C     54.17000000    32.42000000    86.99000000
   O     53.38000000    31.71000000    87.62000000
   C     55.32000000    34.36000000    88.09000000
   H     54.86000000    31.86000000    89.33000000
   H     56.26000000    32.87000000    86.90000000
   H     54.42000000    34.33000000    88.70000000
   H     56.23000000    34.69000000    88.61000000
   H     55.13000000    35.04000000    87.27000000
   N     53.87000000    32.73000000    85.72000000
   C     54.65000000    33.50000000    84.77000000
   C     54.79000000    32.76000000    83.45000000
   O     55.89000000    32.58000000    82.94000000
   C     53.94000000    34.82000000    84.49000000
   C     54.83000000    35.71000000    83.61000000
   C     54.19000000    37.03000000    83.21000000
   O     54.04000000    37.87000000    84.12000000
   O     54.01000000    37.35000000    82.01000000
   H     53.03000000    32.33000000    85.32000000
   H     55.69000000    33.60000000    85.07000000
   H     53.76000000    35.41000000    85.39000000
   H     53.05000000    34.75000000    83.88000000
   H     54.91000000    35.18000000    82.66000000
   H     55.74000000    35.92000000    84.17000000
   N     53.64000000    32.25000000    83.00000000
   C     53.60000000    31.42000000    81.81000000
   H     53.50600000    32.05400000    80.92800000
   H     54.51900000    30.83700000    81.74200000
   H     52.74500000    30.74600000    81.86500000
   H     52.80000000    32.31000000    83.56000000
  Ca     64.80000000    38.10000000    84.57000000
   O     63.24000000    37.18000000    86.37000000
   H     63.12000000    37.50000000    87.27000000
   H     62.74000000    36.36000000    86.35000000
   O     62.29000000    39.17000000    84.42000000
   H     61.69000000    39.31000000    85.16000000
   H     61.75000000    39.28000000    83.64000000
   O     66.40000000    36.43000000    86.20000000
   H     67.10000000    36.86000000    86.68000000
   H     66.00000000    35.84000000    86.85000000

Ca 1.00



