%chk=loop1.apoCaM-CA-Ng.Init295.run91.water6.chk
%nprocshared=20
%mem=10GB
%nosave
#b3lyp/svp scf=(tight,noincore,xqc) Test 
#IOP(5/87=12) Density=Current Pop=(MK,readradii) iop(6/33=2) iop(6/42=6)

loop1.apoCaM-CA-Ng.Init295.run91.water6 

   0  1 
   C    104.80000000    -3.69000000    92.66000000
   C    104.13000000    -2.33000000    92.47000000
   O    102.91000000    -2.24000000    92.41000000
   H    105.75200000    -3.55700000    93.17500000
   H    104.15300000    -4.33500000    93.25500000
   H    104.97500000    -4.14900000    91.68700000
   N    104.97000000    -1.30000000    92.40000000
   C    104.51000000     0.08000000    92.38000000
   C    105.02000000     0.94000000    91.23000000
   O    106.03000000     0.59000000    90.62000000
   C    104.77000000     0.71000000    93.74000000
   C    104.80000000    -0.26000000    94.92000000
   O    103.69000000    -0.66000000    95.33000000
   O    105.92000000    -0.62000000    95.34000000
   H    105.98000000    -1.40000000    92.37000000
   H    103.43000000     0.12000000    92.24000000
   H    103.95000000     1.39000000    93.96000000
   H    105.68000000     1.31000000    93.77000000
   N    104.51000000     2.15000000    91.03000000
   C    104.86000000     3.03000000    89.94000000
   C    106.20000000     3.73000000    90.16000000
   O    106.69000000     4.44000000    89.29000000
   C    103.69000000     3.99000000    89.72000000
   C    102.46000000     3.32000000    89.10000000
   C    101.58000000     4.24000000    88.27000000
   C    101.91000000     4.35000000    86.78000000
   N    101.07000000     5.14000000    85.87000000
   H    103.87000000     2.53000000    91.72000000
   H    104.99000000     2.44000000    89.03000000
   H    104.06000000     4.65000000    88.93000000
   H    103.55000000     4.67000000    90.56000000
   H    101.93000000     2.99000000    89.99000000
   H    102.82000000     2.42000000    88.59000000
   H    101.53000000     5.23000000    88.71000000
   H    100.67000000     3.64000000    88.18000000
   H    102.03000000     3.34000000    86.40000000
   H    102.90000000     4.80000000    86.69000000
   H    101.27000000     6.12000000    86.00000000
   H    101.23000000     4.78000000    84.93000000
   H    100.08000000     5.11000000    86.02000000
   N    106.88000000     3.50000000    91.28000000
   C    108.21000000     3.96000000    91.66000000
   C    108.70000000     3.24000000    92.91000000
   O    107.95000000     3.09000000    93.87000000
   C    108.05000000     5.39000000    92.15000000
   C    109.40000000     5.98000000    92.55000000
   O    110.40000000     5.79000000    91.83000000
   O    109.42000000     6.60000000    93.63000000
   H    106.38000000     2.86000000    91.88000000
   H    108.97000000     3.97000000    90.88000000
   H    107.36000000     5.48000000    92.99000000
   H    107.51000000     6.03000000    91.45000000
   N    109.94000000     2.75000000    92.79000000
   C    110.63000000     2.00000000    93.82000000
   C    112.11000000     2.35000000    93.99000000
   O    112.86000000     2.41000000    93.01000000
   H    110.48000000     2.99000000    91.97000000
   H    110.50000000     0.95000000    93.56000000
   H    110.16000000     2.28000000    94.76000000
   N    112.43000000     2.64000000    95.25000000
   C    113.78000000     2.97000000    95.66000000
   C    114.33000000     2.10000000    96.77000000
   O    115.35000000     2.40000000    97.40000000
   C    113.95000000     4.48000000    95.85000000
   C    113.16000000     5.31000000    94.85000000
   O    113.67000000     5.79000000    93.82000000
   O    112.01000000     5.67000000    95.21000000
   H    111.72000000     2.67000000    95.96000000
   H    114.47000000     2.81000000    94.83000000
   H    115.00000000     4.77000000    95.92000000
   H    113.45000000     4.64000000    96.81000000
   N    113.68000000     0.95000000    97.01000000
   C    114.08000000     0.09000000    98.10000000
   C    113.16000000    -1.12000000    98.20000000
   O    112.71000000    -1.72000000    97.23000000
   H    112.78000000     0.77000000    96.58000000
   H    114.04000000     0.72000000    98.99000000
   H    115.12000000    -0.21000000    97.96000000
   N    113.02000000    -1.60000000    99.44000000
   C    112.19000000    -2.73000000    99.80000000
   C    112.70000000    -3.59000000   100.95000000
   O    113.52000000    -3.19000000   101.78000000
   C    110.73000000    -2.32000000   100.02000000
   C    110.43000000    -1.31000000   101.12000000
   O    110.14000000    -1.75000000    98.88000000
   H    113.28000000    -1.00000000   100.20000000
   H    112.19000000    -3.35000000    98.91000000
   H    110.19000000    -3.25000000   100.20000000
   H    110.45000000    -2.27000000    98.13000000
   H    109.37000000    -1.49000000   101.30000000
   H    110.97000000    -1.63000000   102.01000000
   H    110.65000000    -0.27000000   100.87000000
   N    112.33000000    -4.87000000   100.89000000
   C    112.65000000    -5.93000000   101.82000000
   C    114.12000000    -6.34000000   101.88000000
   O    114.53000000    -6.96000000   102.85000000
   C    111.76000000    -7.14000000   101.57000000
   C    112.13000000    -7.85000000   100.28000000
   C    110.28000000    -6.79000000   101.78000000
   C    111.59000000    -9.28000000   100.25000000
   H    111.81000000    -5.19000000   100.09000000
   H    112.50000000    -5.48000000   102.81000000
   H    112.01000000    -7.85000000   102.36000000
   H    113.20000000    -8.00000000   100.33000000
   H    111.84000000    -7.39000000    99.33000000
   H    109.84000000    -6.12000000   101.05000000
   H    109.62000000    -7.65000000   101.69000000
   H    110.24000000    -6.30000000   102.75000000
   H    112.15000000    -9.82000000    99.49000000
   H    111.59000000    -9.78000000   101.22000000
   H    110.54000000    -9.20000000    99.96000000
   N    114.96000000    -6.03000000   100.89000000
   C    116.41000000    -6.13000000   100.79000000
   C    116.79000000    -6.90000000    99.54000000
   O    115.96000000    -7.31000000    98.73000000
   C    117.14000000    -4.80000000   100.98000000
   C    116.63000000    -3.97000000    99.80000000
   O    116.82000000    -4.20000000   102.21000000
   H    114.66000000    -5.52000000   100.07000000
   H    116.70000000    -6.83000000   101.57000000
   H    118.22000000    -4.95000000   100.90000000
   H    115.87000000    -4.29000000   102.34000000
   H    116.74000000    -4.41000000    98.81000000
   H    115.62000000    -3.58000000    99.94000000
   H    117.30000000    -3.11000000    99.75000000
   N    118.09000000    -7.09000000    99.31000000
   C    118.70000000    -7.43000000    98.04000000
   C    118.51000000    -8.90000000    97.69000000
   O    119.36000000    -9.41000000    96.97000000
   C    120.17000000    -7.03000000    98.10000000
   C    120.93000000    -7.76000000    99.20000000
   O    120.22000000    -5.66000000    98.44000000
   H    118.72000000    -6.88000000   100.07000000
   H    118.16000000    -6.84000000    97.30000000
   H    120.61000000    -7.25000000    97.13000000
   H    119.76000000    -5.24000000    97.71000000
   H    120.99000000    -8.84000000    99.12000000
   H    121.95000000    -7.39000000    99.05000000
   H    120.80000000    -7.34000000   100.20000000
   N    117.50000000    -9.62000000    98.19000000
   C    117.29000000   -11.03000000    97.90000000
   C    116.35000000   -11.15000000    96.71000000
   O    115.36000000   -10.45000000    96.50000000
   C    116.91000000   -11.77000000    99.18000000
   C    115.49000000   -11.46000000    99.65000000
   C    115.00000000   -12.06000000   100.97000000
   C    114.67000000   -13.54000000   100.80000000
   N    113.96000000   -14.03000000   101.99000000
   H    116.85000000    -9.15000000    98.79000000
   H    118.26000000   -11.46000000    97.64000000
   H    117.63000000   -11.40000000    99.91000000
   H    116.98000000   -12.84000000    98.99000000
   H    114.75000000   -11.77000000    98.91000000
   H    115.53000000   -10.39000000    99.86000000
   H    114.13000000   -11.52000000   101.33000000
   H    115.77000000   -11.90000000   101.72000000
   H    115.64000000   -14.02000000   100.67000000
   H    113.98000000   -13.70000000    99.97000000
   H    113.04000000   -13.61000000   101.99000000
   H    113.75000000   -15.02000000   101.94000000
   H    114.49000000   -13.84000000   102.82000000
   N    116.65000000   -12.14000000    95.87000000
   C    116.02000000   -12.42000000    94.60000000
   C    116.78000000   -11.80000000    93.44000000
   O    117.98000000   -11.54000000    93.46000000
   C    115.85000000   -13.92000000    94.36000000
   C    114.82000000   -14.54000000    95.31000000
   C    114.63000000   -16.02000000    95.03000000
   O    115.07000000   -16.77000000    95.92000000
   O    114.19000000   -16.46000000    93.94000000
   H    117.30000000   -12.88000000    96.11000000
   H    114.98000000   -12.10000000    94.60000000
   H    116.80000000   -14.41000000    94.54000000
   H    115.58000000   -14.05000000    93.31000000
   H    113.81000000   -14.13000000    95.23000000
   H    115.26000000   -14.34000000    96.30000000
   N    116.13000000   -11.57000000    92.29000000
   C    114.71000000   -11.62000000    91.98000000
   H    114.19300000   -10.82700000    92.52000000
   H    114.56600000   -11.48200000    90.90800000
   H    114.30600000   -12.58700000    92.28000000
   H    116.67000000   -11.07000000    91.60000000
  Ca    111.45400000     8.02000000    94.30000000
   O    111.79400000    10.53000000    95.14000000
   H    112.51400000    11.17000000    95.12000000
   H    111.10400000    10.96000000    95.64000000
   O    111.08400000     8.17000000    97.05000000
   H    110.24400000     8.57000000    97.28000000
   H    111.64400000     8.32000000    97.82000000
   O    114.12400000     8.67000000    95.19000000
   H    114.50400000     8.39000000    94.36000000
   H    114.85400000     8.66000000    95.81000000
   O    108.89400000     8.86000000    94.68000000
   H    108.52400000     8.04000000    94.37000000
   H    108.33400000     9.54000000    94.29000000
   O    110.50400000     8.79000000    91.84000000
   H    109.59400000     8.78000000    91.54000000
   H    111.02400000     8.81000000    91.03000000
   O    113.54400000     7.92000000    92.43000000
   H    114.04400000     8.21000000    91.66000000
   H    113.92400000     7.07000000    92.65000000

Ca 1.00



