%chk=loop4.holoCaM-CaMKII.run44.water2.chk
%nprocshared=20
%mem=10GB
%nosave
#b3lyp/svp scf=(tight,noincore,xqc) Test 
#IOP(5/87=12) Density=Current Pop=(MK,readradii) iop(6/33=2) iop(6/42=6)

loop4.holoCaM-CaMKII.run44.water2 

   -3  1 
   C      2.80600000    44.34000000    13.76600000
   C      2.79600000    45.31000000    14.94600000
   O      1.79600000    45.93000000    15.27600000
   H      3.46700000    44.72200000    12.98800000
   H      3.16200000    43.36500000    14.09900000
   H      1.79600000    44.24100000    13.36700000
   N      3.94600000    45.47000000    15.60600000
   C      4.22600000    46.48000000    16.60600000
   C      3.92600000    47.86000000    16.01600000
   O      4.46600000    48.22000000    14.96600000
   C      5.68600000    46.39000000    17.04600000
   C      6.04600000    47.57000000    17.92600000
   O      5.22600000    47.86000000    18.82600000
   O      7.18600000    48.07000000    17.90600000
   H      4.68600000    44.84000000    15.31600000
   H      3.55600000    46.29000000    17.44600000
   H      6.39600000    46.43000000    16.22600000
   H      5.80600000    45.49000000    17.64600000
   N      3.04600000    48.61000000    16.66600000
   C      2.58600000    49.85000000    16.07600000
   C      3.18600000    51.06000000    16.78600000
   O      3.16600000    52.17000000    16.25600000
   C      1.05600000    49.86000000    15.97600000
   C      0.77600000    49.48000000    14.52600000
   C      0.34600000    51.18000000    16.21600000
   C     -0.72400000    49.23000000    14.35600000
   H      2.63600000    48.26000000    17.52600000
   H      3.00600000    49.94000000    15.07600000
   H      0.58600000    49.08000000    16.57600000
   H      1.27600000    48.57000000    14.17600000
   H      1.10600000    50.29000000    13.87600000
   H      0.52600000    51.95000000    15.46600000
   H     -0.72400000    51.08000000    16.42600000
   H      0.71600000    51.50000000    17.19600000
   H     -0.78400000    49.04000000    13.28600000
   H     -1.17400000    48.47000000    14.98600000
   H     -1.23400000    50.18000000    14.46600000
   N      3.63600000    51.00000000    18.03600000
   C      4.02600000    52.02000000    18.98600000
   C      5.45600000    51.92000000    19.48600000
   O      5.89600000    52.66000000    20.37600000
   C      3.09600000    52.01000000    20.19600000
   C      2.91600000    50.72000000    20.98600000
   O      3.60600000    49.74000000    20.62600000
   O      1.96600000    50.65000000    21.79600000
   H      3.51600000    50.06000000    18.39600000
   H      4.07600000    52.96000000    18.44600000
   H      2.10600000    52.35000000    19.86600000
   H      3.50600000    52.80000000    20.82600000
   N      6.26600000    51.02000000    18.93600000
   C      7.71600000    50.97000000    18.87600000
   C      8.39600000    50.37000000    20.10600000
   O      9.49600000    50.81000000    20.40600000
   H      5.75600000    50.40000000    18.32600000
   H      8.05600000    52.00000000    18.78600000
   H      8.04600000    50.39000000    18.01600000
   N      7.79600000    49.42000000    20.82600000
   C      8.40600000    48.72000000    21.93600000
   C      8.91600000    47.36000000    21.47600000
   O      9.51600000    46.70000000    22.31600000
   C      7.40600000    48.54000000    23.07600000
   C      6.12600000    47.81000000    22.69600000
   O      6.04600000    46.95000000    21.78600000
   O      5.11600000    47.95000000    23.41600000
   H      6.84600000    49.21000000    20.57600000
   H      9.20600000    49.34000000    22.34600000
   H      7.20600000    49.51000000    23.52600000
   H      7.78600000    47.98000000    23.92600000
   N      8.78600000    46.92000000    20.22600000
   C      9.31600000    45.65000000    19.74600000
   C      8.60600000    44.39000000    20.21600000
   O      9.18600000    43.32000000    20.05600000
   H      8.14600000    47.40000000    19.60600000
   H     10.38600000    45.60000000    19.93600000
   H      9.18600000    45.56000000    18.66600000
   N      7.37600000    44.45000000    20.73600000
   C      6.51600000    43.30000000    20.96600000
   C      5.05600000    43.52000000    20.58600000
   O      4.58600000    44.65000000    20.49600000
   C      6.71600000    42.95000000    22.43600000
   C      7.94600000    42.18000000    22.90600000
   C      7.98600000    41.71000000    24.35600000
   N      8.54600000    42.39000000    25.35600000
   O      7.46600000    40.63000000    24.61600000
   H      6.95600000    45.36000000    20.81600000
   H      6.95600000    42.48000000    20.40600000
   H      5.85600000    42.33000000    22.70600000
   H      6.58600000    43.86000000    23.02600000
   H      8.82600000    42.81000000    22.75600000
   H      8.11600000    41.33000000    22.24600000
   H      8.75600000    43.37000000    25.24600000
   H      8.67600000    41.95000000    26.25600000
   N      4.34600000    42.49000000    20.12600000
   C      2.99600000    42.59000000    19.59600000
   C      2.00600000    42.15000000    20.66600000
   O      2.08600000    41.02000000    21.14600000
   C      2.85600000    41.74000000    18.32600000
   C      1.44600000    41.74000000    17.74600000
   C      3.88600000    42.24000000    17.31600000
   H      4.76600000    41.59000000    20.28600000
   H      2.76600000    43.62000000    19.33600000
   H      3.09600000    40.70000000    18.55600000
   H      1.45600000    41.11000000    16.85600000
   H      0.71600000    41.34000000    18.44600000
   H      1.12600000    42.73000000    17.41600000
   H      3.63600000    43.25000000    16.98600000
   H      4.87600000    41.95000000    17.66600000
   H      3.85600000    41.55000000    16.46600000
   N      1.05600000    43.01000000    21.03600000
   C     -0.06400000    42.69000000    21.89600000
   C     -1.20400000    42.08000000    21.08600000
   O     -1.30400000    42.39000000    19.89600000
   C     -0.40400000    43.98000000    22.63600000
   C     -1.60400000    43.82000000    23.55600000
   N     -1.59400000    42.95000000    24.57600000
   O     -2.69400000    44.35000000    23.33600000
   H      1.18600000    43.95000000    20.69600000
   H      0.15600000    41.91000000    22.62600000
   H     -0.49400000    44.88000000    22.03600000
   H      0.44600000    44.12000000    23.30600000
   H     -0.79400000    42.39000000    24.83600000
   H     -2.42400000    42.74000000    25.10600000
   N     -2.15400000    41.42000000    21.73600000
   C     -3.42400000    41.01000000    21.16600000
   C     -4.10400000    42.10000000    20.34600000
   O     -4.60400000    41.81000000    19.26600000
   C     -4.27400000    40.43000000    22.29600000
   C     -5.43400000    39.63000000    21.76600000
   C     -5.24400000    38.44000000    21.05600000
   C     -6.72400000    40.18000000    21.85600000
   C     -6.35400000    37.85000000    20.43600000
   C     -7.85400000    39.60000000    21.25600000
   C     -7.66400000    38.35000000    20.63600000
   O     -8.68400000    37.66000000    20.06600000
   H     -2.01400000    41.36000000    22.73600000
   H     -3.26400000    40.18000000    20.47600000
   H     -4.66400000    41.24000000    22.91600000
   H     -3.75400000    39.67000000    22.87600000
   H     -4.30400000    37.96000000    20.85600000
   H     -6.84400000    41.07000000    22.44600000
   H     -6.27400000    36.92000000    19.89600000
   H     -8.83400000    40.03000000    21.34600000
   H     -9.52400000    38.12000000    20.07600000
   N     -4.07400000    43.37000000    20.73600000
   C     -4.69400000    44.48000000    20.03600000
   C     -3.94400000    44.83000000    18.75600000
   O     -4.60400000    45.11000000    17.75600000
   C     -4.75400000    45.62000000    21.04600000
   C     -5.44400000    46.85000000    20.46600000
   C     -5.35400000    48.06000000    21.38600000
   O     -4.28400000    48.70000000    21.31600000
   O     -6.23400000    48.27000000    22.25600000
   H     -3.56400000    43.55000000    21.59600000
   H     -5.69400000    44.20000000    19.69600000
   H     -3.75400000    45.94000000    21.33600000
   H     -5.19400000    45.33000000    22.00600000
   H     -6.49400000    46.63000000    20.23600000
   H     -4.90400000    47.02000000    19.53600000
   N     -2.62400000    44.68000000    18.69600000
   C     -1.83400000    44.97000000    17.51600000
   C     -1.84400000    43.81000000    16.52600000
   O     -1.76400000    43.97000000    15.30600000
   C     -0.39400000    45.21000000    17.95600000
   C     -0.19400000    46.57000000    18.62600000
   C      1.16600000    46.67000000    19.29600000
   O      1.88600000    47.66000000    19.06600000
   O      1.49600000    45.76000000    20.09600000
   H     -2.14400000    44.43000000    19.55600000
   H     -2.14400000    45.79000000    16.86600000
   H      0.23600000    45.26000000    17.07600000
   H     -0.08400000    44.39000000    18.59600000
   H     -0.92400000    46.63000000    19.43600000
   H     -0.41400000    47.40000000    17.94600000
   N     -2.05400000    42.62000000    17.08600000
   C     -2.22400000    41.36000000    16.37600000
   H     -3.03200000    41.45800000    15.65100000
   H     -1.29900000    41.10700000    15.85700000
   H     -2.46900000    40.57200000    17.08800000
   H     -2.01400000    42.59000000    18.09600000
  Ca      3.62000000    47.22000000    20.88000000
   O      3.47000000    45.56000000    23.04000000
   H      3.16000000    46.07000000    23.79000000
   H      4.23000000    45.08000000    23.36000000
   O      1.61000000    47.87000000    22.30000000
   H      0.72000000    47.54000000    22.37000000
   H      1.55000000    48.79000000    22.55000000

Ca 1.00



