%chk=loop3.apoCaM-CA-Ng.Init295.run9.water3.chk
%nprocshared=20
%mem=10GB
%nosave
#b3lyp/svp scf=(tight,noincore,xqc) Test 
#IOP(5/87=12) Density=Current Pop=(MK,readradii) iop(6/33=2) iop(6/42=6)

loop3.apoCaM-CA-Ng.Init295.run9.water3 

   0  1 
   C     85.18000000    45.84000000    76.31000000
   C     85.93000000    46.67000000    77.35000000
   O     85.31000000    47.18000000    78.28000000
   H     84.26800000    46.36200000    76.01800000
   H     85.81200000    45.69700000    75.43400000
   H     84.92300000    44.87000000    76.73500000
   N     87.25000000    46.55000000    77.44000000
   C     88.12000000    46.88000000    78.56000000
   C     89.08000000    48.03000000    78.33000000
   O     89.67000000    48.17000000    77.26000000
   C     88.94000000    45.62000000    78.84000000
   C     89.80000000    45.78000000    80.09000000
   O     89.38000000    45.44000000    81.21000000
   O     90.97000000    46.21000000    80.04000000
   H     87.68000000    46.08000000    76.65000000
   H     87.52000000    47.10000000    79.44000000
   H     89.48000000    45.27000000    77.96000000
   H     88.29000000    44.78000000    79.09000000
   N     89.40000000    48.82000000    79.36000000
   C     90.18000000    50.04000000    79.35000000
   C     91.64000000    50.04000000    78.94000000
   O     92.12000000    50.88000000    78.19000000
   C     89.89000000    50.84000000    80.61000000
   C     90.36000000    52.29000000    80.61000000
   C     89.98000000    53.15000000    79.41000000
   C     88.46000000    53.32000000    79.46000000
   N     87.99000000    54.53000000    78.76000000
   H     88.94000000    48.51000000    80.21000000
   H     89.74000000    50.59000000    78.52000000
   H     90.34000000    50.36000000    81.48000000
   H     88.82000000    50.81000000    80.86000000
   H     91.45000000    52.17000000    80.58000000
   H     90.10000000    52.89000000    81.48000000
   H     90.17000000    52.69000000    78.44000000
   H     90.50000000    54.11000000    79.43000000
   H     88.18000000    53.52000000    80.49000000
   H     88.00000000    52.43000000    79.03000000
   H     88.19000000    54.56000000    77.77000000
   H     86.99000000    54.59000000    78.82000000
   H     88.38000000    55.39000000    79.12000000
   N     92.35000000    48.98000000    79.34000000
   C     93.67000000    48.59000000    78.89000000
   C     93.72000000    47.36000000    78.01000000
   O     94.78000000    47.14000000    77.42000000
   C     94.56000000    48.44000000    80.13000000
   C     93.91000000    47.56000000    81.20000000
   O     93.91000000    46.34000000    80.92000000
   O     93.77000000    47.87000000    82.40000000
   H     91.79000000    48.16000000    79.54000000
   H     94.06000000    49.39000000    78.26000000
   H     94.75000000    49.41000000    80.57000000
   H     95.51000000    47.94000000    79.93000000
   N     92.63000000    46.63000000    77.79000000
   C     92.66000000    45.45000000    76.94000000
   C     93.15000000    44.14000000    77.54000000
   O     92.90000000    43.11000000    76.92000000
   H     91.75000000    46.85000000    78.24000000
   H     93.29000000    45.69000000    76.09000000
   H     91.65000000    45.30000000    76.57000000
   N     93.73000000    44.15000000    78.74000000
   C     93.85000000    42.93000000    79.51000000
   C     92.51000000    42.71000000    80.19000000
   O     92.02000000    43.56000000    80.92000000
   C     95.05000000    43.17000000    80.42000000
   C     95.31000000    42.07000000    81.43000000
   N     96.14000000    42.37000000    82.44000000
   O     94.81000000    40.95000000    81.36000000
   H     93.91000000    45.00000000    79.26000000
   H     94.15000000    42.13000000    78.83000000
   H     94.83000000    44.10000000    80.94000000
   H     95.92000000    43.44000000    79.82000000
   H     96.48000000    43.33000000    82.41000000
   H     96.53000000    41.69000000    83.07000000
   N     91.93000000    41.52000000    80.01000000
   C     90.55000000    41.26000000    80.36000000
   C     90.19000000    41.32000000    81.84000000
   O     89.01000000    41.24000000    82.18000000
   H     92.48000000    40.88000000    79.45000000
   H     90.17000000    40.31000000    79.97000000
   H     90.02000000    42.04000000    79.82000000
   N     91.15000000    41.46000000    82.75000000
   C     90.85000000    41.58000000    84.16000000
   C     90.37000000    42.96000000    84.58000000
   O     90.90000000    43.90000000    83.99000000
   C     92.00000000    40.92000000    84.92000000
   C     92.12000000    39.43000000    84.71000000
   C     93.15000000    38.97000000    83.89000000
   C     91.35000000    38.57000000    85.50000000
   C     93.29000000    37.58000000    83.83000000
   C     91.60000000    37.20000000    85.53000000
   C     92.57000000    36.68000000    84.64000000
   O     92.80000000    35.34000000    84.52000000
   H     91.99000000    41.92000000    82.42000000
   H     89.93000000    41.01000000    84.28000000
   H     91.73000000    41.06000000    85.97000000
   H     92.90000000    41.50000000    84.72000000
   H     93.71000000    39.74000000    83.38000000
   H     90.57000000    39.00000000    86.13000000
   H     93.97000000    37.22000000    83.07000000
   H     90.92000000    36.53000000    86.03000000
   H     92.17000000    34.88000000    85.08000000
   N     89.46000000    43.03000000    85.55000000
   C     88.75000000    44.09000000    86.25000000
   C     89.56000000    45.06000000    87.08000000
   O     90.72000000    45.37000000    86.80000000
   C     87.62000000    44.78000000    85.48000000
   C     86.50000000    43.80000000    85.14000000
   C     88.10000000    45.47000000    84.20000000
   C     85.11000000    44.39000000    84.91000000
   H     89.17000000    42.11000000    85.84000000
   H     88.16000000    43.50000000    86.95000000
   H     87.22000000    45.58000000    86.11000000
   H     86.33000000    43.05000000    85.91000000
   H     86.60000000    43.35000000    84.16000000
   H     88.37000000    44.76000000    83.42000000
   H     87.39000000    46.15000000    83.74000000
   H     88.98000000    46.07000000    84.44000000
   H     84.83000000    44.35000000    83.86000000
   H     84.29000000    44.05000000    85.53000000
   H     85.18000000    45.47000000    85.06000000
   N     88.93000000    45.69000000    88.07000000
   C     89.47000000    46.57000000    89.09000000
   C     89.03000000    46.20000000    90.50000000
   O     89.90000000    46.22000000    91.37000000
   C     89.17000000    48.04000000    88.83000000
   O     87.79000000    48.18000000    88.57000000
   H     87.92000000    45.60000000    88.14000000
   H     90.56000000    46.53000000    89.00000000
   H     89.76000000    48.42000000    88.00000000
   H     89.48000000    48.67000000    89.67000000
   H     87.66000000    48.99000000    88.07000000
   N     87.81000000    45.73000000    90.76000000
   C     87.15000000    45.56000000    92.04000000
   C     87.50000000    46.54000000    93.15000000
   O     88.24000000    46.17000000    94.07000000
   C     87.20000000    44.13000000    92.55000000
   H     87.25000000    45.63000000    89.92000000
   H     86.14000000    45.78000000    91.70000000
   H     86.85000000    43.40000000    91.82000000
   H     88.22000000    43.80000000    92.77000000
   H     86.50000000    43.99000000    93.38000000
   N     87.05000000    47.79000000    93.25000000
   C     86.22000000    48.40000000    92.23000000
   C     84.75000000    48.54000000    92.60000000
   O     84.45000000    49.16000000    93.61000000
   C     86.94000000    49.72000000    91.97000000
   H     87.18000000    48.22000000    94.16000000
   H     86.23000000    47.85000000    91.28000000
   H     86.44000000    50.18000000    91.12000000
   H     86.93000000    50.38000000    92.84000000
   H     87.98000000    49.51000000    91.75000000
   N     83.79000000    48.09000000    91.78000000
   C     83.82000000    47.56000000    90.44000000
   C     83.03000000    46.28000000    90.18000000
   O     83.40000000    45.54000000    89.28000000
   C     83.42000000    48.59000000    89.39000000
   C     84.37000000    48.62000000    88.19000000
   C     83.84000000    49.72000000    87.29000000
   O     82.61000000    49.74000000    87.09000000
   O     84.61000000    50.56000000    86.76000000
   H     82.88000000    48.13000000    92.22000000
   H     84.84000000    47.34000000    90.13000000
   H     83.38000000    49.59000000    89.82000000
   H     82.44000000    48.29000000    89.04000000
   H     84.46000000    47.69000000    87.62000000
   H     85.32000000    48.88000000    88.67000000
   N     81.90000000    46.11000000    90.88000000
   C     80.99000000    45.00000000    90.67000000
   H     80.07600000    45.36400000    90.20000000
   H     81.46100000    44.26100000    90.02200000
   H     80.74700000    44.54200000    91.62900000
   H     81.71000000    46.83000000    91.56000000
  Ca     91.89000000    45.66000000    82.50000000
   O     92.45000000    46.68000000    85.11000000
   H     92.14000000    46.22000000    85.90000000
   H     92.25000000    47.60000000    85.27000000
   O     90.22000000    47.88000000    83.00000000
   H     90.10000000    48.59000000    83.64000000
   H     89.39000000    47.83000000    82.54000000
   O     93.63000000    43.79000000    83.88000000
   H     93.36000000    43.69000000    84.79000000
   H     94.42000000    43.25000000    83.80000000

Ca 1.00



