%chk=loop1.apoCaM-CA-Ng.Init31.run44.water4.chk
%nprocshared=20
%mem=10GB
%nosave
#b3lyp/svp scf=(tight,noincore,xqc) Test 
#IOP(5/87=12) Density=Current Pop=(MK,readradii) iop(6/33=2) iop(6/42=6)

loop1.apoCaM-CA-Ng.Init31.run44.water4 

   0  1 
   C     98.97000000    72.30000000    18.47000000
   C     99.97000000    73.21000000    17.77000000
   O    101.09000000    73.36000000    18.25000000
   H     98.03900000    72.28100000    17.90400000
   H     99.37800000    71.29100000    18.53200000
   H     98.77600000    72.67700000    19.47400000
   N     99.73000000    73.51000000    16.49000000
   C    100.64000000    74.26000000    15.65000000
   C     99.90000000    75.45000000    15.07000000
   O     98.68000000    75.60000000    15.15000000
   C    101.10000000    73.30000000    14.56000000
   C    102.31000000    73.86000000    13.82000000
   O    102.87000000    74.90000000    14.22000000
   O    102.79000000    73.19000000    12.88000000
   H     98.84000000    73.30000000    16.06000000
   H    101.47000000    74.62000000    16.26000000
   H    100.28000000    73.17000000    13.84000000
   H    101.42000000    72.36000000    15.01000000
   N    100.63000000    76.38000000    14.44000000
   C    100.18000000    77.64000000    13.90000000
   C     99.32000000    77.62000000    12.64000000
   O     98.50000000    78.52000000    12.59000000
   C    101.39000000    78.58000000    13.81000000
   C    101.60000000    79.41000000    15.08000000
   C    102.98000000    80.04000000    14.93000000
   C    103.32000000    81.04000000    16.03000000
   N    103.21000000    80.35000000    17.32000000
   H    101.61000000    76.18000000    14.31000000
   H     99.47000000    78.08000000    14.60000000
   H    101.20000000    79.25000000    12.97000000
   H    102.32000000    78.07000000    13.60000000
   H    101.44000000    78.89000000    16.02000000
   H    100.79000000    80.14000000    15.06000000
   H    103.12000000    80.42000000    13.92000000
   H    103.69000000    79.22000000    15.04000000
   H    102.62000000    81.88000000    15.96000000
   H    104.36000000    81.35000000    15.95000000
   H    102.27000000    80.00000000    17.46000000
   H    103.80000000    79.54000000    17.44000000
   H    103.39000000    80.98000000    18.09000000
   N     99.50000000    76.75000000    11.64000000
   C    100.63000000    75.89000000    11.32000000
   C    100.23000000    74.62000000    10.58000000
   O     99.19000000    74.57000000     9.93000000
   C    101.47000000    76.74000000    10.37000000
   C    102.77000000    76.01000000    10.06000000
   O    103.37000000    75.34000000    10.93000000
   O    103.21000000    76.12000000     8.89000000
   H     98.69000000    76.75000000    11.05000000
   H    101.19000000    75.60000000    12.21000000
   H    101.53000000    77.76000000    10.74000000
   H    100.92000000    76.85000000     9.43000000
   N    101.14000000    73.64000000    10.62000000
   C    101.01000000    72.38000000     9.93000000
   C    101.91000000    71.32000000    10.57000000
   O    101.51000000    70.68000000    11.54000000
   H    102.04000000    73.83000000    11.04000000
   H    101.38000000    72.48000000     8.91000000
   H    100.02000000    71.93000000     9.84000000
   N    103.10000000    71.11000000    10.00000000
   C    104.03000000    70.04000000    10.29000000
   C    103.88000000    69.05000000     9.15000000
   O    103.35000000    69.44000000     8.11000000
   C    105.47000000    70.53000000    10.43000000
   C    105.60000000    71.84000000    11.19000000
   O    105.65000000    71.81000000    12.44000000
   O    105.63000000    72.95000000    10.61000000
   H    103.39000000    71.80000000     9.33000000
   H    103.79000000    69.57000000    11.25000000
   H    105.83000000    70.79000000     9.44000000
   H    106.11000000    69.85000000    11.00000000
   N    104.30000000    67.79000000     9.21000000
   C    104.99000000    67.08000000    10.27000000
   C    106.50000000    67.08000000    10.09000000
   O    107.10000000    66.67000000    11.08000000
   H    104.01000000    67.24000000     8.42000000
   H    104.55000000    66.08000000    10.27000000
   H    104.63000000    67.59000000    11.17000000
   N    107.06000000    67.61000000     9.00000000
   C    108.46000000    67.42000000     8.67000000
   C    108.74000000    65.94000000     8.44000000
   O    109.54000000    65.27000000     9.09000000
   C    109.49000000    68.15000000     9.52000000
   C    109.12000000    69.53000000    10.08000000
   O    110.79000000    68.14000000     8.98000000
   H    106.41000000    67.95000000     8.31000000
   H    108.54000000    67.84000000     7.67000000
   H    109.54000000    67.49000000    10.39000000
   H    111.33000000    67.53000000     9.47000000
   H    109.98000000    69.94000000    10.62000000
   H    108.87000000    70.10000000     9.19000000
   H    108.25000000    69.36000000    10.71000000
   N    107.93000000    65.36000000     7.56000000
   C    107.83000000    63.96000000     7.20000000
   C    109.08000000    63.33000000     6.60000000
   O    108.99000000    62.81000000     5.50000000
   C    107.25000000    63.12000000     8.34000000
   C    105.84000000    63.58000000     8.71000000
   C    107.26000000    61.64000000     7.97000000
   C    105.26000000    63.07000000    10.03000000
   H    107.18000000    65.97000000     7.25000000
   H    107.08000000    63.90000000     6.41000000
   H    107.85000000    63.13000000     9.25000000
   H    105.17000000    63.29000000     7.90000000
   H    105.87000000    64.67000000     8.73000000
   H    108.28000000    61.29000000     7.80000000
   H    106.86000000    61.10000000     8.83000000
   H    106.65000000    61.50000000     7.08000000
   H    105.06000000    62.00000000    10.02000000
   H    105.82000000    63.38000000    10.91000000
   H    104.29000000    63.51000000    10.26000000
   N    110.23000000    63.27000000     7.27000000
   C    111.54000000    62.83000000     6.82000000
   C    112.24000000    61.82000000     7.71000000
   O    111.81000000    61.46000000     8.81000000
   C    112.50000000    63.99000000     6.55000000
   C    112.66000000    64.94000000     7.73000000
   O    112.07000000    64.73000000     5.43000000
   H    110.17000000    63.64000000     8.21000000
   H    111.50000000    62.41000000     5.81000000
   H    113.51000000    63.64000000     6.34000000
   H    112.74000000    65.15000000     4.89000000
   H    111.75000000    65.51000000     7.89000000
   H    112.98000000    64.42000000     8.64000000
   H    113.36000000    65.75000000     7.51000000
   N    113.40000000    61.35000000     7.25000000
   C    114.34000000    60.52000000     7.97000000
   C    115.04000000    61.31000000     9.06000000
   O    115.59000000    62.39000000     8.80000000
   C    115.41000000    59.76000000     7.19000000
   C    114.71000000    58.70000000     6.33000000
   O    116.06000000    60.59000000     6.26000000
   H    113.78000000    61.73000000     6.40000000
   H    113.79000000    59.75000000     8.51000000
   H    116.10000000    59.25000000     7.87000000
   H    116.89000000    60.85000000     6.67000000
   H    115.37000000    58.12000000     5.70000000
   H    114.28000000    57.93000000     6.97000000
   H    113.99000000    59.15000000     5.65000000
   N    115.18000000    60.81000000    10.29000000
   C    115.54000000    61.56000000    11.48000000
   C    115.26000000    63.06000000    11.46000000
   O    116.18000000    63.87000000    11.32000000
   C    117.01000000    61.21000000    11.73000000
   C    117.42000000    61.50000000    13.17000000
   C    118.94000000    61.53000000    13.36000000
   C    119.25000000    61.89000000    14.81000000
   N    118.82000000    60.88000000    15.79000000
   H    115.04000000    59.82000000    10.36000000
   H    114.97000000    61.26000000    12.35000000
   H    117.63000000    61.66000000    10.95000000
   H    117.13000000    60.16000000    11.47000000
   H    116.95000000    60.79000000    13.84000000
   H    117.09000000    62.51000000    13.40000000
   H    119.31000000    62.30000000    12.69000000
   H    119.38000000    60.56000000    13.10000000
   H    118.74000000    62.81000000    15.07000000
   H    120.31000000    62.14000000    14.90000000
   H    119.23000000    59.99000000    15.57000000
   H    119.05000000    61.15000000    16.74000000
   H    117.82000000    60.75000000    15.71000000
   N    113.99000000    63.44000000    11.61000000
   C    113.57000000    64.83000000    11.73000000
   C    112.22000000    65.07000000    11.08000000
   O    112.10000000    66.18000000    10.56000000
   C    113.59000000    65.49000000    13.10000000
   C    114.30000000    66.84000000    13.06000000
   C    114.38000000    67.45000000    14.45000000
   O    115.05000000    66.86000000    15.33000000
   O    113.67000000    68.44000000    14.70000000
   H    113.27000000    62.75000000    11.54000000
   H    114.29000000    65.43000000    11.18000000
   H    114.11000000    64.90000000    13.86000000
   H    112.57000000    65.70000000    13.42000000
   H    113.75000000    67.47000000    12.36000000
   H    115.30000000    66.68000000    12.65000000
   N    111.10000000    64.35000000    11.15000000
   C    110.95000000    63.01000000    11.70000000
   H    109.95100000    62.63500000    11.47500000
   H    111.69400000    62.34900000    11.25600000
   H    111.09100000    63.04200000    12.78000000
   H    110.38000000    64.76000000    10.58000000
  Ca    105.04000000    74.44000000    12.62000000
   O    106.54000000    75.86000000    10.99000000
   H    106.79000000    75.77000000    10.07000000
   H    107.34000000    76.15000000    11.43000000
   O    107.49000000    74.76000000    13.95000000
   H    108.33000000    74.78000000    13.50000000
   H    107.67000000    75.12000000    14.82000000
   O    105.26000000    73.35000000    15.09000000
   H    105.51000000    73.90000000    15.83000000
   H    105.64000000    72.49000000    15.30000000
   O    105.43000000    76.85000000    13.64000000
   H    106.02000000    77.58000000    13.45000000
   H    105.06000000    77.06000000    14.50000000

Ca 1.00



