%chk=loop3.holoCaM-CaMKII.run6.water2.chk
%nprocshared=20
%mem=10GB
%nosave
#b3lyp/svp scf=(tight,noincore,xqc) Test 
#IOP(5/87=12) Density=Current Pop=(MK,readradii) iop(6/33=2) iop(6/42=6)

loop3.holoCaM-CaMKII.run6.water2 

   0  1 
   C     65.40000000    50.24000000    25.73000000
   C     64.63000000    49.03000000    26.24000000
   O     65.02000000    47.91000000    25.89000000
   H     66.37200000    49.92000000    25.35400000
   H     64.83900000    50.71600000    24.92600000
   H     65.54200000    50.95000000    26.54400000
   N     63.55000000    49.19000000    27.01000000
   C     62.97000000    48.10000000    27.76000000
   C     61.93000000    47.31000000    26.97000000
   O     60.74000000    47.48000000    27.22000000
   C     62.38000000    48.78000000    28.99000000
   C     61.70000000    47.81000000    29.95000000
   O     60.68000000    48.14000000    30.58000000
   O     62.13000000    46.65000000    30.13000000
   H     63.29000000    50.13000000    27.25000000
   H     63.73000000    47.39000000    28.08000000
   H     61.65000000    49.57000000    28.85000000
   H     63.32000000    49.11000000    29.44000000
   N     62.31000000    46.48000000    26.00000000
   C     61.50000000    45.92000000    24.93000000
   C     60.55000000    44.81000000    25.35000000
   O     59.63000000    44.52000000    24.59000000
   C     62.36000000    45.60000000    23.71000000
   C     63.42000000    44.56000000    24.06000000
   C     64.03000000    44.11000000    22.74000000
   C     65.45000000    43.71000000    23.12000000
   N     65.62000000    42.49000000    23.93000000
   H     63.31000000    46.52000000    25.87000000
   H     60.87000000    46.75000000    24.62000000
   H     62.81000000    46.46000000    23.22000000
   H     61.72000000    45.19000000    22.92000000
   H     63.00000000    43.69000000    24.56000000
   H     64.16000000    45.04000000    24.71000000
   H     64.07000000    44.88000000    21.97000000
   H     63.47000000    43.26000000    22.34000000
   H     65.87000000    44.56000000    23.67000000
   H     66.04000000    43.74000000    22.21000000
   H     66.54000000    42.37000000    24.33000000
   H     64.94000000    42.48000000    24.67000000
   H     65.39000000    41.69000000    23.37000000
   N     60.79000000    44.12000000    26.47000000
   C     59.87000000    43.23000000    27.14000000
   C     59.07000000    43.97000000    28.20000000
   O     58.08000000    43.40000000    28.65000000
   C     60.68000000    42.03000000    27.62000000
   C     61.95000000    42.35000000    28.39000000
   O     61.98000000    43.43000000    29.03000000
   O     62.84000000    41.47000000    28.34000000
   H     61.67000000    44.31000000    26.92000000
   H     59.16000000    42.80000000    26.44000000
   H     61.02000000    41.51000000    26.71000000
   H     60.01000000    41.32000000    28.10000000
   N     59.42000000    45.18000000    28.64000000
   C     58.57000000    46.17000000    29.27000000
   C     58.53000000    46.17000000    30.79000000
   O     57.83000000    47.00000000    31.37000000
   H     60.34000000    45.54000000    28.42000000
   H     57.56000000    45.89000000    28.98000000
   H     58.84000000    47.18000000    28.94000000
   N     59.31000000    45.26000000    31.38000000
   C     59.21000000    45.00000000    32.80000000
   C     59.70000000    46.07000000    33.77000000
   O     59.75000000    45.83000000    34.98000000
   C     59.70000000    43.59000000    33.10000000
   C     61.21000000    43.51000000    33.22000000
   N     61.71000000    43.00000000    34.35000000
   O     62.00000000    43.92000000    32.37000000
   H     60.05000000    44.78000000    30.89000000
   H     58.12000000    44.98000000    32.86000000
   H     59.40000000    42.86000000    32.34000000
   H     59.36000000    43.20000000    34.06000000
   H     61.07000000    42.74000000    35.08000000
   H     62.70000000    42.82000000    34.48000000
   N     60.21000000    47.18000000    33.23000000
   C     60.53000000    48.37000000    34.00000000
   C     61.99000000    48.45000000    34.42000000
   O     62.29000000    49.16000000    35.38000000
   H     60.12000000    47.36000000    32.24000000
   H     59.93000000    48.35000000    34.91000000
   H     60.28000000    49.27000000    33.45000000
   N     62.83000000    47.83000000    33.60000000
   C     64.18000000    47.62000000    34.07000000
   C     64.96000000    47.48000000    32.77000000
   O     64.79000000    46.54000000    32.00000000
   C     64.36000000    46.33000000    34.87000000
   C     63.70000000    46.37000000    36.23000000
   C     64.40000000    46.99000000    37.27000000
   C     62.49000000    45.71000000    36.47000000
   C     63.84000000    46.93000000    38.56000000
   C     61.97000000    45.64000000    37.76000000
   C     62.65000000    46.24000000    38.84000000
   O     62.30000000    46.12000000    40.15000000
   H     62.37000000    47.28000000    32.87000000
   H     64.58000000    48.43000000    34.68000000
   H     65.41000000    46.08000000    35.05000000
   H     63.98000000    45.46000000    34.34000000
   H     65.34000000    47.44000000    37.00000000
   H     62.06000000    45.19000000    35.62000000
   H     64.45000000    47.27000000    39.38000000
   H     61.17000000    44.94000000    38.00000000
   H     61.58000000    45.49000000    40.23000000
   N     65.97000000    48.35000000    32.63000000
   C     66.94000000    48.39000000    31.56000000
   C     68.13000000    47.53000000    31.94000000
   O     68.85000000    47.86000000    32.88000000
   C     67.33000000    49.81000000    31.16000000
   C     66.19000000    50.67000000    30.62000000
   C     68.49000000    49.82000000    30.17000000
   C     66.62000000    52.06000000    30.15000000
   H     66.03000000    49.10000000    33.30000000
   H     66.46000000    47.92000000    30.70000000
   H     67.68000000    50.32000000    32.06000000
   H     65.41000000    50.70000000    31.38000000
   H     65.79000000    50.10000000    29.78000000
   H     68.96000000    50.80000000    30.11000000
   H     69.26000000    49.10000000    30.41000000
   H     67.96000000    49.47000000    29.28000000
   H     65.78000000    52.39000000    29.54000000
   H     66.80000000    52.70000000    31.01000000
   H     67.53000000    52.19000000    29.58000000
   N     68.26000000    46.39000000    31.25000000
   C     69.30000000    45.38000000    31.30000000
   C     70.56000000    45.77000000    30.54000000
   O     70.46000000    46.59000000    29.64000000
   C     68.72000000    44.02000000    30.91000000
   O     68.72000000    43.98000000    29.50000000
   H     67.62000000    46.22000000    30.49000000
   H     69.72000000    45.15000000    32.28000000
   H     67.70000000    43.92000000    31.27000000
   H     69.33000000    43.21000000    31.32000000
   H     68.26000000    43.18000000    29.24000000
   N     71.76000000    45.20000000    30.74000000
   C     72.93000000    45.42000000    29.91000000
   C     72.80000000    44.97000000    28.46000000
   O     73.40000000    45.52000000    27.54000000
   C     74.12000000    44.74000000    30.58000000
   H     71.72000000    44.40000000    31.36000000
   H     73.05000000    46.50000000    29.85000000
   H     74.27000000    45.16000000    31.58000000
   H     73.97000000    43.66000000    30.57000000
   H     74.99000000    44.97000000    29.95000000
   N     72.00000000    43.93000000    28.20000000
   C     71.68000000    43.54000000    26.85000000
   C     70.69000000    44.44000000    26.13000000
   O     70.71000000    44.42000000    24.90000000
   C     71.13000000    42.12000000    26.97000000
   H     71.65000000    43.43000000    29.00000000
   H     72.62000000    43.43000000    26.30000000
   H     71.71000000    41.63000000    27.75000000
   H     70.08000000    42.06000000    27.27000000
   H     71.25000000    41.59000000    26.03000000
   N     69.85000000    45.18000000    26.86000000
   C     69.03000000    46.23000000    26.29000000
   C     69.88000000    47.45000000    25.97000000
   O     69.68000000    48.09000000    24.94000000
   C     67.83000000    46.52000000    27.18000000
   C     66.79000000    45.41000000    27.12000000
   C     65.77000000    45.25000000    28.24000000
   O     64.61000000    44.97000000    27.88000000
   O     65.97000000    45.45000000    29.46000000
   H     69.85000000    45.18000000    27.87000000
   H     68.62000000    45.85000000    25.35000000
   H     67.33000000    47.42000000    26.82000000
   H     68.08000000    46.69000000    28.23000000
   H     67.28000000    44.44000000    27.14000000
   H     66.31000000    45.49000000    26.14000000
   N     70.70000000    47.86000000    26.94000000
   C     71.50000000    49.06000000    26.78000000
   H     72.44900000    48.80300000    26.31000000
   H     70.96600000    49.77300000    26.15200000
   H     71.68800000    49.50500000    27.75700000
   H     70.78000000    47.35000000    27.81000000
  Ca     63.71000000    44.61000000    30.41000000
   O     65.01000000    42.20000000    29.54000000
   H     65.79000000    41.74000000    29.25000000
   H     64.28000000    41.71000000    29.16000000
   O     64.85000000    43.12000000    32.48000000
   H     65.34000000    42.37000000    32.14000000
   H     64.66000000    42.89000000    33.39000000

Ca 1.00



