%chk=loop3.apoCaM-CA-Ng.Init295.run24.water3.chk
%nprocshared=20
%mem=10GB
%nosave
#b3lyp/svp scf=(tight,noincore,xqc) Test 
#IOP(5/87=12) Density=Current Pop=(MK,readradii) iop(6/33=2) iop(6/42=6)

loop3.apoCaM-CA-Ng.Init295.run24.water3 

   0  1 
   C     96.17000000    33.22000000    51.32000000
   C     97.48000000    33.24000000    52.10000000
   O     97.47000000    33.75000000    53.22000000
   H     95.43500000    33.84400000    51.82900000
   H     96.33900000    33.60600000    50.31500000
   H     95.79800000    32.19700000    51.25900000
   N     98.61000000    32.93000000    51.46000000
   C     99.91000000    33.31000000    51.99000000
   C    100.82000000    33.60000000    50.81000000
   O    100.92000000    32.75000000    49.92000000
   C    100.42000000    32.17000000    52.86000000
   C    101.82000000    32.39000000    53.42000000
   O    102.06000000    32.72000000    54.60000000
   O    102.76000000    32.07000000    52.67000000
   H     98.52000000    32.39000000    50.61000000
   H     99.94000000    34.27000000    52.49000000
   H    100.47000000    31.25000000    52.28000000
   H     99.71000000    31.89000000    53.64000000
   N    101.67000000    34.62000000    50.90000000
   C    102.58000000    35.01000000    49.84000000
   C    103.69000000    34.05000000    49.44000000
   O    104.40000000    34.41000000    48.50000000
   C    103.07000000    36.44000000    50.06000000
   C    101.93000000    37.45000000    50.18000000
   C    102.46000000    38.84000000    50.54000000
   C    103.56000000    38.92000000    51.59000000
   N    103.77000000    40.26000000    52.17000000
   H    101.49000000    35.30000000    51.63000000
   H    101.81000000    34.99000000    49.08000000
   H    103.69000000    36.78000000    49.23000000
   H    103.75000000    36.51000000    50.91000000
   H    101.09000000    37.14000000    50.79000000
   H    101.57000000    37.58000000    49.16000000
   H    101.59000000    39.43000000    50.81000000
   H    102.82000000    39.34000000    49.64000000
   H    104.48000000    38.58000000    51.10000000
   H    103.24000000    38.26000000    52.39000000
   H    104.59000000    40.30000000    52.75000000
   H    103.92000000    40.93000000    51.43000000
   H    102.94000000    40.49000000    52.69000000
   N    103.81000000    32.82000000    49.97000000
   C    104.45000000    31.66000000    49.41000000
   C    103.78000000    30.31000000    49.59000000
   O    104.28000000    29.20000000    49.41000000
   C    105.87000000    31.54000000    49.95000000
   C    105.81000000    31.72000000    51.46000000
   O    105.25000000    30.94000000    52.26000000
   O    106.29000000    32.75000000    51.98000000
   H    103.21000000    32.63000000    50.77000000
   H    104.49000000    31.75000000    48.32000000
   H    106.47000000    32.39000000    49.62000000
   H    106.32000000    30.56000000    49.76000000
   N    102.49000000    30.31000000    49.94000000
   C    101.65000000    29.15000000    50.14000000
   C    101.84000000    28.39000000    51.44000000
   O    101.10000000    27.42000000    51.59000000
   H    102.07000000    31.20000000    50.20000000
   H    101.83000000    28.37000000    49.40000000
   H    100.60000000    29.44000000    50.12000000
   N    102.64000000    28.89000000    52.39000000
   C    102.74000000    28.24000000    53.68000000
   C    102.57000000    29.23000000    54.82000000
   O    103.41000000    30.12000000    54.91000000
   C    104.01000000    27.40000000    53.69000000
   C    104.32000000    26.91000000    55.09000000
   N    105.58000000    27.08000000    55.50000000
   O    103.53000000    26.25000000    55.77000000
   H    102.96000000    29.84000000    52.29000000
   H    101.88000000    27.58000000    53.81000000
   H    104.77000000    28.12000000    53.39000000
   H    103.94000000    26.52000000    53.04000000
   H    106.30000000    27.53000000    54.95000000
   H    105.81000000    26.69000000    56.40000000
   N    101.57000000    29.02000000    55.68000000
   C    100.82000000    29.93000000    56.52000000
   C    101.43000000    30.86000000    57.55000000
   O    100.69000000    31.66000000    58.13000000
   H    101.17000000    28.10000000    55.53000000
   H    100.01000000    29.46000000    57.09000000
   H    100.23000000    30.56000000    55.84000000
   N    102.74000000    30.73000000    57.76000000
   C    103.53000000    31.39000000    58.77000000
   C    104.21000000    32.62000000    58.19000000
   O    104.49000000    32.73000000    56.99000000
   C    104.56000000    30.50000000    59.47000000
   C    104.17000000    29.15000000    60.02000000
   C    104.52000000    27.98000000    59.34000000
   C    103.53000000    29.06000000    61.26000000
   C    104.09000000    26.73000000    59.81000000
   C    103.15000000    27.82000000    61.79000000
   C    103.43000000    26.66000000    61.05000000
   O    103.21000000    25.39000000    61.53000000
   H    103.30000000    30.13000000    57.18000000
   H    102.73000000    31.74000000    59.42000000
   H    104.81000000    31.05000000    60.38000000
   H    105.38000000    30.46000000    58.75000000
   H    105.10000000    28.01000000    58.43000000
   H    103.31000000    29.94000000    61.85000000
   H    104.31000000    25.90000000    59.16000000
   H    102.58000000    27.76000000    62.70000000
   H    102.97000000    25.40000000    62.46000000
   N    104.44000000    33.60000000    59.07000000
   C    104.96000000    34.92000000    58.82000000
   C    106.41000000    34.98000000    58.36000000
   O    107.03000000    34.03000000    57.89000000
   C    104.01000000    35.87000000    58.10000000
   C    102.69000000    36.05000000    58.85000000
   C    103.89000000    35.67000000    56.59000000
   C    101.76000000    37.10000000    58.25000000
   H    104.18000000    33.37000000    60.02000000
   H    105.11000000    35.38000000    59.80000000
   H    104.49000000    36.85000000    58.12000000
   H    102.94000000    36.43000000    59.84000000
   H    102.21000000    35.07000000    58.94000000
   H    103.22000000    34.84000000    56.37000000
   H    103.60000000    36.61000000    56.11000000
   H    104.90000000    35.51000000    56.23000000
   H    102.15000000    38.11000000    58.12000000
   H    101.33000000    36.77000000    57.30000000
   H    100.97000000    37.13000000    59.00000000
   N    106.95000000    36.19000000    58.53000000
   C    108.36000000    36.46000000    58.28000000
   C    109.11000000    36.72000000    59.58000000
   O    110.16000000    36.13000000    59.80000000
   C    108.53000000    37.68000000    57.38000000
   O    107.94000000    38.86000000    57.87000000
   H    106.41000000    36.90000000    58.98000000
   H    108.87000000    35.64000000    57.77000000
   H    108.19000000    37.51000000    56.36000000
   H    109.62000000    37.78000000    57.38000000
   H    108.34000000    39.56000000    57.36000000
   N    108.55000000    37.48000000    60.52000000
   C    109.12000000    37.89000000    61.79000000
   C    110.60000000    38.20000000    61.59000000
   O    111.43000000    37.38000000    61.97000000
   C    108.88000000    36.86000000    62.90000000
   H    107.55000000    37.57000000    60.38000000
   H    108.67000000    38.85000000    62.04000000
   H    109.41000000    37.02000000    63.84000000
   H    107.88000000    36.81000000    63.32000000
   H    109.16000000    35.85000000    62.59000000
   N    111.05000000    39.40000000    61.19000000
   C    110.26000000    40.56000000    60.84000000
   C    109.82000000    41.37000000    62.06000000
   O    110.64000000    41.60000000    62.94000000
   C    110.99000000    41.43000000    59.82000000
   H    112.04000000    39.56000000    61.19000000
   H    109.45000000    40.10000000    60.29000000
   H    110.95000000    40.92000000    58.85000000
   H    110.51000000    42.40000000    59.67000000
   H    112.02000000    41.55000000    60.16000000
   N    108.61000000    41.90000000    62.25000000
   C    107.45000000    41.68000000    61.40000000
   C    106.19000000    41.41000000    62.21000000
   O    105.53000000    40.41000000    61.96000000
   C    107.25000000    42.83000000    60.42000000
   C    106.10000000    42.62000000    59.44000000
   C    105.86000000    43.87000000    58.60000000
   O    106.72000000    44.14000000    57.74000000
   O    104.88000000    44.65000000    58.69000000
   H    108.52000000    42.43000000    63.10000000
   H    107.57000000    40.79000000    60.79000000
   H    108.14000000    42.99000000    59.81000000
   H    107.07000000    43.74000000    61.00000000
   H    105.17000000    42.38000000    59.95000000
   H    106.36000000    41.82000000    58.75000000
   N    105.93000000    42.25000000    63.21000000
   C    104.74000000    42.24000000    64.04000000
   H    103.90500000    41.83100000    63.47200000
   H    104.91600000    41.62300000    64.92100000
   H    104.50400000    43.25800000    64.35000000
   H    106.54000000    43.04000000    63.37000000
  Ca    104.70600000    32.30000000    54.29000000
   O    106.50600000    34.08000000    55.19000000
   H    106.83600000    33.94000000    56.08000000
   H    106.96600000    34.87000000    54.89000000
   O    104.42600000    35.05000000    53.38000000
   H    105.15600000    35.64000000    53.57000000
   H    103.67600000    35.63000000    53.26000000
   O    106.62600000    30.91000000    55.38000000
   H    107.12600000    30.97000000    56.20000000
   H    106.71600000    29.99000000    55.12000000

Ca 1.00



