%chk=loop3.holoCaM.run44.water3.chk
%nprocshared=20
%mem=10GB
%nosave
#b3lyp/svp scf=(tight,noincore,xqc) Test 
#IOP(5/87=12) Density=Current Pop=(MK,readradii) iop(6/33=2) iop(6/42=6)

loop3.holoCaM.run44.water3 

   0  1 
   C     72.68000000    52.89000000    29.55000000
   C     74.10000000    52.81000000    30.09000000
   O     74.32000000    52.04000000    31.02000000
   H     72.05300000    53.43300000    30.25700000
   H     72.68300000    53.41200000    28.59300000
   H     72.28500000    51.88300000    29.41300000
   N     75.06000000    53.56000000    29.55000000
   C     76.35000000    54.06000000    29.98000000
   C     76.18000000    55.25000000    30.91000000
   O     75.83000000    56.30000000    30.38000000
   C     77.20000000    54.43000000    28.77000000
   C     78.64000000    54.78000000    29.13000000
   O     79.42000000    55.13000000    28.22000000
   O     79.05000000    54.72000000    30.31000000
   H     74.66000000    54.08000000    28.78000000
   H     76.86000000    53.20000000    30.42000000
   H     76.76000000    55.29000000    28.27000000
   H     77.14000000    53.64000000    28.03000000
   N     76.54000000    55.10000000    32.19000000
   C     76.09000000    56.05000000    33.20000000
   C     76.84000000    57.37000000    33.35000000
   O     76.18000000    58.39000000    33.50000000
   C     75.98000000    55.37000000    34.56000000
   C     74.81000000    54.39000000    34.51000000
   C     74.22000000    53.81000000    35.80000000
   C     73.25000000    54.80000000    36.43000000
   N     72.53000000    54.17000000    37.56000000
   H     77.03000000    54.27000000    32.50000000
   H     75.10000000    56.42000000    32.95000000
   H     75.76000000    56.14000000    35.31000000
   H     76.84000000    54.83000000    34.95000000
   H     75.14000000    53.52000000    33.95000000
   H     73.94000000    54.93000000    34.13000000
   H     74.99000000    53.54000000    36.52000000
   H     73.66000000    52.90000000    35.60000000
   H     72.54000000    55.21000000    35.71000000
   H     73.89000000    55.64000000    36.67000000
   H     73.19000000    53.93000000    38.28000000
   H     71.79000000    54.84000000    37.74000000
   H     72.05000000    53.39000000    37.15000000
   N     78.12000000    57.38000000    32.98000000
   C     79.00000000    58.52000000    32.79000000
   C     79.13000000    58.99000000    31.35000000
   O     79.74000000    60.03000000    31.10000000
   C     80.40000000    58.32000000    33.37000000
   C     81.11000000    57.02000000    33.06000000
   O     82.35000000    57.07000000    33.19000000
   O     80.52000000    56.03000000    32.56000000
   H     78.48000000    56.46000000    32.76000000
   H     78.60000000    59.32000000    33.41000000
   H     80.39000000    58.52000000    34.44000000
   H     81.10000000    59.05000000    32.97000000
   N     78.70000000    58.19000000    30.37000000
   C     78.86000000    58.51000000    28.96000000
   C     80.30000000    58.46000000    28.47000000
   O     80.60000000    59.12000000    27.48000000
   H     78.25000000    57.31000000    30.57000000
   H     78.43000000    59.49000000    28.76000000
   H     78.17000000    57.82000000    28.46000000
   N     81.24000000    57.71000000    29.05000000
   C     82.63000000    57.72000000    28.63000000
   C     82.88000000    56.85000000    27.40000000
   O     83.98000000    57.01000000    26.89000000
   C     83.36000000    57.23000000    29.88000000
   C     83.48000000    55.73000000    30.08000000
   N     84.68000000    55.18000000    29.89000000
   O     82.54000000    54.97000000    30.30000000
   H     80.96000000    57.08000000    29.78000000
   H     82.94000000    58.71000000    28.30000000
   H     82.78000000    57.60000000    30.73000000
   H     84.30000000    57.76000000    30.01000000
   H     85.43000000    55.81000000    29.67000000
   H     84.75000000    54.18000000    29.99000000
   N     81.87000000    56.17000000    26.85000000
   C     82.00000000    55.48000000    25.59000000
   C     81.58000000    54.02000000    25.69000000
   O     81.45000000    53.40000000    24.64000000
   H     81.01000000    56.05000000    27.37000000
   H     83.04000000    55.52000000    25.28000000
   H     81.39000000    55.97000000    24.82000000
   N     81.37000000    53.45000000    26.88000000
   C     81.30000000    52.03000000    27.18000000
   C     80.38000000    51.65000000    28.33000000
   O     80.41000000    52.25000000    29.40000000
   C     82.71000000    51.60000000    27.57000000
   C     83.67000000    51.74000000    26.41000000
   C     84.69000000    52.71000000    26.45000000
   C     83.50000000    50.93000000    25.29000000
   C     85.56000000    52.88000000    25.38000000
   C     84.49000000    51.04000000    24.30000000
   C     85.52000000    52.00000000    24.28000000
   O     86.41000000    52.17000000    23.27000000
   H     81.26000000    54.09000000    27.66000000
   H     80.98000000    51.54000000    26.26000000
   H     82.66000000    50.52000000    27.75000000
   H     82.98000000    52.15000000    28.47000000
   H     84.84000000    53.32000000    27.33000000
   H     82.71000000    50.19000000    25.26000000
   H     86.20000000    53.75000000    25.28000000
   H     84.47000000    50.38000000    23.44000000
   H     86.10000000    51.62000000    22.55000000
   N     79.66000000    50.54000000    28.14000000
   C     78.75000000    49.98000000    29.11000000
   C     79.42000000    48.85000000    29.89000000
   O     79.81000000    47.86000000    29.27000000
   C     77.48000000    49.51000000    28.41000000
   C     76.97000000    50.44000000    27.32000000
   C     76.38000000    49.33000000    29.46000000
   C     75.50000000    50.23000000    26.93000000
   H     79.79000000    49.98000000    27.30000000
   H     78.65000000    50.88000000    29.71000000
   H     77.49000000    48.51000000    27.98000000
   H     77.53000000    50.18000000    26.42000000
   H     77.07000000    51.49000000    27.60000000
   H     76.64000000    48.66000000    30.27000000
   H     76.05000000    50.28000000    29.89000000
   H     75.49000000    48.86000000    29.03000000
   H     75.26000000    49.17000000    26.84000000
   H     74.89000000    50.61000000    27.75000000
   H     75.31000000    50.72000000    25.98000000
   N     79.57000000    48.93000000    31.21000000
   C     80.14000000    47.90000000    32.06000000
   C     79.18000000    46.77000000    32.40000000
   O     77.99000000    46.91000000    32.13000000
   C     80.71000000    48.45000000    33.36000000
   O     81.53000000    49.58000000    33.16000000
   H     79.41000000    49.76000000    31.75000000
   H     81.00000000    47.44000000    31.57000000
   H     81.26000000    47.66000000    33.88000000
   H     79.92000000    48.73000000    34.06000000
   H     82.20000000    49.33000000    32.51000000
   N     79.64000000    45.69000000    33.05000000
   C     78.77000000    44.60000000    33.43000000
   C     77.56000000    44.94000000    34.28000000
   O     76.42000000    44.72000000    33.88000000
   C     79.59000000    43.48000000    34.07000000
   H     80.63000000    45.53000000    33.15000000
   H     78.31000000    44.23000000    32.51000000
   H     80.35000000    43.15000000    33.37000000
   H     80.11000000    43.82000000    34.97000000
   H     78.87000000    42.78000000    34.49000000
   N     77.79000000    45.65000000    35.39000000
   C     76.83000000    46.27000000    36.28000000
   C     76.12000000    47.45000000    35.64000000
   O     75.20000000    48.00000000    36.23000000
   C     77.37000000    46.50000000    37.69000000
   H     78.77000000    45.77000000    35.61000000
   H     76.01000000    45.57000000    36.44000000
   H     77.82000000    45.54000000    37.97000000
   H     78.08000000    47.33000000    37.73000000
   H     76.52000000    46.73000000    38.34000000
   N     76.50000000    47.91000000    34.45000000
   C     75.67000000    48.88000000    33.76000000
   C     74.75000000    48.17000000    32.78000000
   O     73.57000000    48.52000000    32.68000000
   C     76.44000000    49.93000000    32.96000000
   C     77.24000000    50.94000000    33.78000000
   C     78.04000000    51.90000000    32.90000000
   O     78.16000000    53.09000000    33.27000000
   O     78.77000000    51.54000000    31.96000000
   H     77.28000000    47.54000000    33.92000000
   H     74.96000000    49.41000000    34.40000000
   H     75.63000000    50.48000000    32.47000000
   H     77.04000000    49.47000000    32.18000000
   H     77.90000000    50.40000000    34.46000000
   H     76.55000000    51.46000000    34.45000000
   N     75.23000000    47.12000000    32.11000000
   C     74.55000000    46.49000000    31.00000000
   H     73.64400000    47.04800000    30.76600000
   H     75.20600000    46.48100000    30.12900000
   H     74.28700000    45.46700000    31.26800000
   H     76.20000000    46.92000000    32.32000000
  Ca     80.74000000    53.55000000    31.74000000
   O     82.79000000    51.90000000    31.33000000
   H     82.68000000    50.96000000    31.23000000
   H     83.72000000    52.02000000    31.52000000
   O     81.11000000    52.08000000    34.06000000
   H     81.39000000    51.17000000    33.97000000
   H     81.44000000    52.36000000    34.91000000
   O     83.00000000    54.22000000    33.34000000
   H     83.24000000    55.10000000    33.05000000
   H     83.55000000    54.06000000    34.11000000

Ca 1.00



