%chk=loop4.apoCaM-CA-Ng.Init31.run76.water4.chk
%nprocshared=20
%mem=10GB
%nosave
#b3lyp/svp scf=(tight,noincore,xqc) Test 
#IOP(5/87=12) Density=Current Pop=(MK,readradii) iop(6/33=2) iop(6/42=6)

loop4.apoCaM-CA-Ng.Init31.run76.water4 

   -3  1 
   C     96.00000000    32.01000000    40.73000000
   C     96.70000000    32.94000000    39.75000000
   O     96.19000000    34.01000000    39.42000000
   H     95.00600000    31.76700000    40.35300000
   H     96.58000000    31.09400000    40.84000000
   H     95.91000000    32.50200000    41.69800000
   N     97.86000000    32.67000000    39.14000000
   C     98.88000000    31.70000000    39.47000000
   C    100.04000000    32.32000000    40.23000000
   O    100.52000000    31.76000000    41.21000000
   C     99.25000000    30.95000000    38.19000000
   C    100.62000000    30.30000000    38.30000000
   O    101.63000000    30.82000000    37.77000000
   O    100.76000000    29.32000000    39.06000000
   H     98.06000000    33.29000000    38.36000000
   H     98.46000000    31.00000000    40.19000000
   H     99.28000000    31.45000000    37.22000000
   H     98.51000000    30.17000000    38.06000000
   N    100.44000000    33.54000000    39.86000000
   C    101.30000000    34.43000000    40.60000000
   C    102.58000000    34.71000000    39.82000000
   O    103.67000000    34.61000000    40.39000000
   C    100.64000000    35.79000000    40.80000000
   C     99.24000000    35.72000000    41.40000000
   C    101.59000000    36.73000000    41.54000000
   C     98.38000000    36.97000000    41.27000000
   H    100.00000000    33.92000000    39.03000000
   H    101.64000000    33.95000000    41.52000000
   H    100.41000000    36.25000000    39.83000000
   H     99.35000000    35.45000000    42.45000000
   H     98.70000000    34.90000000    40.91000000
   H    102.50000000    36.97000000    41.00000000
   H    101.10000000    37.69000000    41.72000000
   H    101.81000000    36.32000000    42.53000000
   H     97.99000000    36.96000000    40.25000000
   H     97.52000000    36.73000000    41.88000000
   H     98.96000000    37.88000000    41.44000000
   N    102.53000000    35.17000000    38.57000000
   C    103.48000000    36.02000000    37.89000000
   C    104.77000000    35.38000000    37.39000000
   O    105.81000000    35.98000000    37.14000000
   C    102.82000000    36.79000000    36.74000000
   C    103.63000000    38.07000000    36.59000000
   O    104.03000000    38.45000000    35.46000000
   O    103.64000000    38.90000000    37.52000000
   H    101.60000000    35.31000000    38.22000000
   H    103.79000000    36.73000000    38.66000000
   H    101.85000000    37.08000000    37.14000000
   H    102.74000000    36.29000000    35.78000000
   N    104.62000000    34.07000000    37.18000000
   C    105.42000000    33.24000000    36.31000000
   C    105.33000000    33.59000000    34.83000000
   O    104.21000000    33.49000000    34.32000000
   H    103.70000000    33.68000000    37.38000000
   H    105.13000000    32.20000000    36.39000000
   H    106.47000000    33.33000000    36.61000000
   N    106.49000000    33.89000000    34.25000000
   C    106.71000000    34.03000000    32.82000000
   C    107.59000000    35.24000000    32.54000000
   O    108.48000000    35.57000000    33.31000000
   C    107.27000000    32.75000000    32.21000000
   C    108.50000000    32.23000000    32.93000000
   O    109.62000000    32.61000000    32.52000000
   O    108.38000000    31.48000000    33.92000000
   H    107.31000000    33.89000000    34.84000000
   H    105.79000000    34.33000000    32.32000000
   H    107.39000000    32.87000000    31.13000000
   H    106.56000000    31.92000000    32.25000000
   N    107.41000000    35.91000000    31.40000000
   C    106.42000000    35.66000000    30.36000000
   C    106.59000000    36.43000000    29.06000000
   O    107.30000000    37.43000000    29.13000000
   H    108.04000000    36.69000000    31.25000000
   H    105.46000000    35.94000000    30.78000000
   H    106.26000000    34.63000000    30.07000000
   N    106.04000000    36.06000000    27.90000000
   C    105.58000000    34.77000000    27.42000000
   C    104.37000000    34.27000000    28.19000000
   O    103.72000000    34.92000000    29.00000000
   C    106.76000000    33.82000000    27.22000000
   C    107.53000000    33.92000000    25.90000000
   C    106.64000000    33.60000000    24.71000000
   N    107.19000000    33.85000000    23.52000000
   O    105.64000000    32.88000000    24.82000000
   H    106.16000000    36.77000000    27.19000000
   H    105.16000000    34.90000000    26.43000000
   H    106.40000000    32.79000000    27.30000000
   H    107.48000000    34.01000000    28.01000000
   H    108.38000000    33.24000000    25.86000000
   H    107.88000000    34.94000000    25.79000000
   H    107.96000000    34.50000000    23.51000000
   H    106.51000000    33.79000000    22.78000000
   N    103.94000000    33.08000000    27.77000000
   C    102.76000000    32.37000000    28.23000000
   C    102.20000000    31.50000000    27.12000000
   O    103.02000000    30.94000000    26.39000000
   C    103.01000000    31.55000000    29.49000000
   C    103.25000000    32.52000000    30.65000000
   C    104.15000000    30.53000000    29.47000000
   H    104.45000000    32.59000000    27.04000000
   H    101.96000000    33.07000000    28.45000000
   H    102.10000000    30.98000000    29.64000000
   H    102.45000000    33.26000000    30.59000000
   H    103.20000000    31.84000000    31.50000000
   H    104.22000000    33.02000000    30.64000000
   H    103.93000000    29.82000000    28.67000000
   H    105.13000000    31.00000000    29.36000000
   H    104.22000000    30.02000000    30.43000000
   N    100.88000000    31.30000000    27.08000000
   C    100.31000000    30.45000000    26.05000000
   C    100.08000000    29.01000000    26.49000000
   O     99.19000000    28.41000000    25.89000000
   C     99.09000000    31.17000000    25.49000000
   C     98.90000000    30.97000000    23.99000000
   N     98.25000000    29.90000000    23.53000000
   O     99.45000000    31.76000000    23.22000000
   H    100.30000000    31.97000000    27.58000000
   H    101.01000000    30.33000000    25.22000000
   H     99.18000000    32.24000000    25.68000000
   H     98.16000000    30.92000000    25.98000000
   H     97.77000000    29.29000000    24.19000000
   H     98.23000000    29.85000000    22.53000000
   N    100.79000000    28.49000000    27.50000000
   C    100.61000000    27.16000000    28.05000000
   C    100.42000000    27.12000000    29.56000000
   O    100.84000000    28.05000000    30.25000000
   C    101.71000000    26.16000000    27.69000000
   C    103.13000000    26.47000000    28.10000000
   C    103.58000000    26.28000000    29.41000000
   C    103.92000000    27.16000000    27.17000000
   C    104.90000000    26.59000000    29.77000000
   C    105.16000000    27.67000000    27.60000000
   C    105.66000000    27.35000000    28.87000000
   O    106.89000000    27.76000000    29.30000000
   H    101.48000000    29.15000000    27.81000000
   H     99.75000000    26.74000000    27.54000000
   H    101.73000000    26.08000000    26.60000000
   H    101.27000000    25.19000000    27.95000000
   H    103.03000000    25.78000000    30.19000000
   H    103.58000000    27.30000000    26.16000000
   H    105.27000000    26.42000000    30.77000000
   H    105.73000000    28.30000000    26.93000000
   H    107.28000000    27.29000000    30.04000000
   N    100.06000000    25.95000000    30.07000000
   C    100.08000000    25.61000000    31.48000000
   C     98.90000000    26.28000000    32.17000000
   O     97.81000000    26.43000000    31.62000000
   C    100.11000000    24.09000000    31.57000000
   C     98.84000000    23.42000000    31.06000000
   C     99.01000000    21.92000000    30.84000000
   O     99.34000000    21.56000000    29.69000000
   O     98.69000000    21.13000000    31.75000000
   H     99.65000000    25.19000000    29.54000000
   H    101.00000000    26.00000000    31.94000000
   H    100.15000000    23.78000000    32.61000000
   H    100.94000000    23.68000000    30.98000000
   H     98.52000000    23.87000000    30.12000000
   H     98.06000000    23.65000000    31.79000000
   N     99.12000000    26.87000000    33.35000000
   C     98.33000000    27.84000000    34.07000000
   C     98.34000000    29.26000000    33.51000000
   O     98.68000000    30.21000000    34.21000000
   C     98.76000000    27.86000000    35.54000000
   C     98.46000000    26.59000000    36.32000000
   C     99.05000000    26.57000000    37.72000000
   O     98.27000000    26.41000000    38.69000000
   O    100.29000000    26.55000000    37.87000000
   H    100.05000000    26.72000000    33.71000000
   H     97.25000000    27.73000000    34.10000000
   H     98.18000000    28.66000000    36.01000000
   H     99.81000000    28.12000000    35.62000000
   H     98.86000000    25.77000000    35.73000000
   H     97.38000000    26.45000000    36.29000000
   N     98.08000000    29.39000000    32.21000000
   C     98.10000000    30.61000000    31.42000000
   H     98.95500000    31.21800000    31.71400000
   H     98.18000000    30.35800000    30.36300000
   H     97.18100000    31.17000000    31.59200000
   H     97.88000000    28.55000000    31.68000000
  Ca     99.88300000    27.25000000    40.49000000
   O    102.47300000    27.46000000    40.05000000
   H    102.68300000    28.30000000    39.64000000
   H    103.24300000    26.91000000    39.88000000
   O    101.47300000    26.17000000    42.59000000
   H    102.42300000    26.33000000    42.64000000
   H    101.20300000    26.12000000    43.51000000
   O    100.99300000    29.16000000    41.97000000
   H    100.89300000    30.08000000    41.72000000
   H    101.65300000    29.17000000    42.66000000
   O     98.77000000    24.99000000    41.21000000
   H     98.26000000    24.74000000    41.98000000
   H     98.85000000    24.19000000    40.70000000

Ca 1.00



