%chk=loop1.holoCaM-CaMKII.run43.water2.chk
%nprocshared=20
%mem=10GB
%nosave
#b3lyp/svp scf=(tight,noincore,xqc) Test 
#IOP(5/87=12) Density=Current Pop=(MK,readradii) iop(6/33=2) iop(6/42=6)

loop1.holoCaM-CaMKII.run43.water2 

   0  1 
   C     -6.25800000    22.91000000    -4.39800000
   C     -6.04800000    22.59000000    -5.86800000
   O     -5.34800000    21.66000000    -6.24800000
   H     -7.31000000    22.78000000    -4.14500000
   H     -5.65300000    22.23800000    -3.78900000
   H     -5.96300000    23.94100000    -4.20400000
   N     -6.61800000    23.44000000    -6.72800000
   C     -6.84800000    23.24000000    -8.14800000
   C     -5.60800000    23.53000000    -8.97800000
   O     -5.51800000    24.40000000    -9.84800000
   C     -8.04800000    24.08000000    -8.56800000
   C     -8.52800000    23.82000000    -9.98800000
   O     -9.20800000    24.70000000   -10.55800000
   O     -8.19800000    22.75000000   -10.56800000
   H     -7.08800000    24.20000000    -6.25800000
   H     -7.18800000    22.23000000    -8.37800000
   H     -7.92800000    25.15000000    -8.35800000
   H     -8.90800000    23.78000000    -7.97800000
   N     -4.50800000    22.81000000    -8.72800000
   C     -3.20800000    23.12000000    -9.26800000
   C     -2.99800000    22.92000000   -10.75800000
   O     -1.86800000    23.06000000   -11.20800000
   C     -2.11800000    22.49000000    -8.40800000
   C     -2.07800000    23.05000000    -6.98800000
   C     -1.06800000    22.21000000    -6.20800000
   C     -0.73800000    22.74000000    -4.81800000
   N     -1.54800000    22.17000000    -3.72800000
   H     -4.47800000    22.16000000    -7.95800000
   H     -3.07800000    24.18000000    -9.04800000
   H     -1.15800000    22.69000000    -8.87800000
   H     -2.23800000    21.40000000    -8.39800000
   H     -2.99800000    22.95000000    -6.40800000
   H     -1.68800000    24.06000000    -7.05800000
   H     -0.19800000    22.30000000    -6.84800000
   H     -1.45800000    21.19000000    -6.30800000
   H     -0.78800000    23.83000000    -4.75800000
   H      0.33200000    22.56000000    -4.69800000
   H     -1.20800000    22.52000000    -2.83800000
   H     -2.52800000    22.41000000    -3.77800000
   H     -1.38800000    21.18000000    -3.61800000
   N     -4.07800000    22.59000000   -11.48800000
   C     -4.17800000    22.56000000   -12.92800000
   C     -5.20800000    23.45000000   -13.59800000
   O     -5.16800000    23.51000000   -14.82800000
   C     -4.12800000    21.10000000   -13.36800000
   C     -5.25800000    20.23000000   -12.83800000
   O     -6.31800000    20.75000000   -12.40800000
   O     -5.19800000    18.99000000   -12.92800000
   H     -4.91800000    22.73000000   -10.94800000
   H     -3.17800000    22.94000000   -13.15800000
   H     -3.17800000    20.60000000   -13.14800000
   H     -4.20800000    21.09000000   -14.45800000
   N     -5.95800000    24.30000000   -12.88800000
   C     -6.68800000    25.46000000   -13.36800000
   C     -7.98800000    25.10000000   -14.07800000
   O     -8.57800000    25.94000000   -14.75800000
   H     -5.86800000    24.15000000   -11.89800000
   H     -6.17800000    25.97000000   -14.18800000
   H     -6.85800000    26.15000000   -12.54800000
   N     -8.52800000    23.88000000   -14.00800000
   C     -9.71800000    23.42000000   -14.68800000
   C    -11.05800000    23.76000000   -14.05800000
   O    -12.13800000    23.63000000   -14.63800000
   C     -9.68800000    21.90000000   -14.83800000
   C     -9.62800000    20.97000000   -13.63800000
   O    -10.21800000    21.30000000   -12.58800000
   O     -8.82800000    20.00000000   -13.66800000
   H     -8.00800000    23.24000000   -13.42800000
   H     -9.66800000    23.75000000   -15.72800000
   H     -8.74800000    21.71000000   -15.35800000
   H    -10.48800000    21.50000000   -15.45800000
   N    -10.99800000    24.34000000   -12.84800000
   C    -12.05800000    24.99000000   -12.11800000
   C    -12.78800000    24.01000000   -11.19800000
   O    -13.77800000    24.40000000   -10.58800000
   H    -10.09800000    24.33000000   -12.37800000
   H    -12.82800000    25.44000000   -12.73800000
   H    -11.62800000    25.83000000   -11.57800000
   N    -12.35800000    22.75000000   -11.24800000
   C    -12.93800000    21.72000000   -10.40800000
   C    -11.90800000    21.10000000    -9.47800000
   O    -10.71800000    21.17000000    -9.76800000
   C    -13.55800000    20.57000000   -11.19800000
   C    -14.72800000    21.07000000   -12.03800000
   O    -12.64800000    19.92000000   -12.05800000
   H    -11.50800000    22.60000000   -11.77800000
   H    -13.73800000    22.20000000    -9.84800000
   H    -13.93800000    19.84000000   -10.48800000
   H    -12.02800000    20.61000000   -12.29800000
   H    -14.39800000    21.67000000   -12.89800000
   H    -15.39800000    20.26000000   -12.29800000
   H    -15.33800000    21.71000000   -11.39800000
   N    -12.30800000    20.53000000    -8.33800000
   C    -11.42800000    19.85000000    -7.40800000
   C    -11.96800000    18.45000000    -7.13800000
   O    -13.08800000    18.23000000    -6.67800000
   C    -11.31800000    20.60000000    -6.08800000
   C    -10.80800000    22.03000000    -6.26800000
   C    -10.45800000    19.81000000    -5.10800000
   C    -11.08800000    22.96000000    -5.08800000
   H    -13.29800000    20.54000000    -8.13800000
   H    -10.39800000    19.80000000    -7.75800000
   H    -12.28800000    20.58000000    -5.60800000
   H    -11.40800000    22.48000000    -7.06800000
   H     -9.75800000    22.16000000    -6.51800000
   H    -10.42800000    20.39000000    -4.18800000
   H    -10.96800000    18.89000000    -4.80800000
   H     -9.45800000    19.55000000    -5.43800000
   H    -10.52800000    22.59000000    -4.22800000
   H    -10.76800000    23.97000000    -5.34800000
   H    -12.15800000    22.96000000    -4.86800000
   N    -11.07800000    17.45000000    -7.19800000
   C    -11.23800000    16.04000000    -6.91800000
   C    -10.66800000    15.49000000    -5.61800000
   O     -9.98800000    16.12000000    -4.81800000
   C    -10.46800000    15.37000000    -8.05800000
   C    -10.93800000    15.72000000    -9.46800000
   O     -9.08800000    15.65000000    -7.95800000
   H    -10.14800000    17.79000000    -7.41800000
   H    -12.27800000    15.72000000    -7.00800000
   H    -10.69800000    14.32000000    -7.92800000
   H     -8.63800000    15.64000000    -8.80800000
   H    -11.10800000    16.79000000    -9.60800000
   H    -10.07800000    15.58000000   -10.13800000
   H    -11.83800000    15.16000000    -9.70800000
   N    -10.83800000    14.20000000    -5.29800000
   C    -10.17800000    13.44000000    -4.25800000
   C     -8.65800000    13.51000000    -4.22800000
   O     -8.04800000    13.54000000    -3.16800000
   C    -10.56800000    11.97000000    -4.41800000
   C    -12.02800000    11.76000000    -4.01800000
   O    -10.43800000    11.45000000    -5.71800000
   H    -11.49800000    13.72000000    -5.88800000
   H    -10.48800000    13.80000000    -3.26800000
   H     -9.93800000    11.35000000    -3.76800000
   H    -10.43800000    10.49000000    -5.66800000
   H    -12.15800000    10.68000000    -3.87800000
   H    -12.13800000    12.18000000    -3.01800000
   H    -12.75800000    12.14000000    -4.73800000
   N     -8.06800000    13.45000000    -5.42800000
   C     -6.65800000    13.52000000    -5.73800000
   C     -6.00800000    14.84000000    -5.34800000
   O     -4.99800000    14.76000000    -4.64800000
   C     -6.57800000    13.35000000    -7.24800000
   C     -7.09800000    12.10000000    -7.95800000
   C     -6.38800000    11.89000000    -9.29800000
   C     -6.61800000    13.00000000   -10.30800000
   N     -5.75800000    12.99000000   -11.50800000
   H     -8.62800000    13.14000000    -6.19800000
   H     -5.99800000    12.76000000    -5.31800000
   H     -5.52800000    13.33000000    -7.56800000
   H     -7.04800000    14.18000000    -7.76800000
   H     -8.17800000    12.14000000    -8.07800000
   H     -6.86800000    11.28000000    -7.27800000
   H     -6.85800000    11.01000000    -9.74800000
   H     -5.32800000    11.67000000    -9.21800000
   H     -6.54800000    13.94000000    -9.76800000
   H     -7.63800000    12.86000000   -10.66800000
   H     -5.72800000    12.09000000   -11.94800000
   H     -6.08800000    13.55000000   -12.27800000
   H     -4.79800000    13.24000000   -11.29800000
   N     -6.70800000    15.95000000    -5.62800000
   C     -6.16800000    17.24000000    -5.24800000
   C     -6.27800000    17.73000000    -3.81800000
   O     -5.28800000    18.28000000    -3.33800000
   C     -6.67800000    18.31000000    -6.20800000
   C     -6.21800000    18.12000000    -7.65800000
   C     -6.91800000    19.13000000    -8.55800000
   O     -8.14800000    19.34000000    -8.54800000
   O     -6.28800000    19.72000000    -9.45800000
   H     -7.48800000    15.80000000    -6.25800000
   H     -5.08800000    17.19000000    -5.34800000
   H     -6.52800000    19.37000000    -5.99800000
   H     -7.74800000    18.14000000    -6.26800000
   H     -6.43800000    17.15000000    -8.09800000
   H     -5.12800000    18.17000000    -7.53800000
   N     -7.39800000    17.49000000    -3.11800000
   C     -7.50800000    17.66000000    -1.68800000
   H     -8.55900000    17.75400000    -1.41400000
   H     -7.07700000    16.79500000    -1.18400000
   H     -6.97300000    18.56000000    -1.38600000
   H     -8.12800000    16.94000000    -3.54800000
  Ca     -8.38800000    20.30000000   -10.86800000
   O    -10.32800000    18.33000000   -11.50800000
   H    -10.36800000    17.63000000   -12.15800000
   H    -11.03800000    18.93000000   -11.75800000
   O     -7.53800000    17.96000000   -12.01800000
   H     -8.05800000    17.73000000   -12.78800000
   H     -6.78800000    18.44000000   -12.36800000

Ca 1.00



