%chk=loop4.apoCaM-CA-Ng.Init295.run98.water4.chk
%nprocshared=20
%mem=10GB
%nosave
#b3lyp/svp scf=(tight,noincore,xqc) Test 
#IOP(5/87=12) Density=Current Pop=(MK,readradii) iop(6/33=2) iop(6/42=6)

loop4.apoCaM-CA-Ng.Init295.run98.water4 

   -3  1 
   C     10.46000000    75.73000000    71.92000000
   C      9.61000000    74.52000000    72.30000000
   O      8.43000000    74.48000000    71.95000000
   H     11.41600000    75.39100000    71.52100000
   H      9.93900000    76.31800000    71.16400000
   H     10.63300000    76.34500000    72.80300000
   N     10.18000000    73.49000000    72.92000000
   C      9.49000000    72.26000000    73.30000000
   C      8.89000000    71.32000000    72.28000000
   O      7.92000000    70.58000000    72.46000000
   C      8.47000000    72.61000000    74.39000000
   C      9.11000000    73.51000000    75.43000000
   O     10.13000000    73.04000000    75.99000000
   O      8.67000000    74.66000000    75.67000000
   H     11.18000000    73.49000000    72.80000000
   H     10.29000000    71.63000000    73.69000000
   H      8.28000000    71.72000000    74.98000000
   H      7.57000000    73.03000000    73.93000000
   N      9.55000000    71.39000000    71.12000000
   C      9.23000000    70.68000000    69.90000000
   C      9.92000000    69.33000000    69.78000000
   O     11.14000000    69.21000000    69.90000000
   C      9.62000000    71.58000000    68.72000000
   C      8.91000000    72.93000000    68.78000000
   C      9.26000000    70.96000000    67.37000000
   C      9.41000000    73.97000000    67.78000000
   H     10.34000000    72.02000000    71.10000000
   H      8.15000000    70.50000000    69.88000000
   H     10.70000000    71.66000000    68.86000000
   H      8.83000000    73.29000000    69.80000000
   H      7.85000000    72.80000000    68.58000000
   H      8.18000000    70.95000000    67.31000000
   H      9.76000000    71.49000000    66.57000000
   H      9.72000000    69.97000000    67.28000000
   H      9.38000000    73.60000000    66.75000000
   H      8.92000000    74.94000000    67.84000000
   H     10.47000000    74.15000000    67.90000000
   N      9.29000000    68.20000000    69.47000000
   C      7.87000000    67.91000000    69.42000000
   C      7.31000000    67.38000000    70.73000000
   O      6.22000000    67.76000000    71.15000000
   C      7.61000000    66.93000000    68.29000000
   C      8.38000000    65.62000000    68.20000000
   O      7.89000000    64.75000000    67.44000000
   O      9.42000000    65.47000000    68.87000000
   H      9.88000000    67.37000000    69.46000000
   H      7.37000000    68.81000000    69.05000000
   H      7.91000000    67.47000000    67.39000000
   H      6.56000000    66.68000000    68.18000000
   N      8.09000000    66.60000000    71.49000000
   C      7.77000000    65.97000000    72.76000000
   C      6.49000000    65.15000000    72.75000000
   O      6.35000000    64.34000000    71.84000000
   H      9.04000000    66.37000000    71.22000000
   H      7.58000000    66.77000000    73.47000000
   H      8.54000000    65.34000000    73.20000000
   N      5.57000000    65.34000000    73.70000000
   C      4.27000000    64.72000000    73.86000000
   C      3.12000000    65.59000000    73.36000000
   O      1.97000000    65.16000000    73.29000000
   C      4.13000000    64.21000000    75.29000000
   C      5.30000000    63.34000000    75.75000000
   O      5.68000000    62.38000000    75.05000000
   O      5.77000000    63.61000000    76.88000000
   H      5.75000000    66.09000000    74.35000000
   H      4.43000000    63.82000000    73.27000000
   H      3.29000000    63.52000000    75.34000000
   H      3.89000000    65.04000000    75.94000000
   N      3.41000000    66.80000000    72.90000000
   C      2.45000000    67.71000000    72.30000000
   C      1.26000000    68.20000000    73.12000000
   O      0.15000000    68.31000000    72.60000000
   H      4.35000000    67.16000000    73.03000000
   H      2.01000000    67.26000000    71.41000000
   H      2.94000000    68.63000000    72.00000000
   N      1.41000000    68.44000000    74.42000000
   C      0.28000000    68.83000000    75.25000000
   C     -0.30000000    70.17000000    74.83000000
   O     -1.51000000    70.27000000    74.61000000
   C     -0.72000000    67.71000000    75.54000000
   C     -0.24000000    66.34000000    76.00000000
   C     -1.41000000    65.37000000    76.01000000
   N     -2.50000000    65.69000000    76.71000000
   O     -1.31000000    64.27000000    75.47000000
   H      2.28000000    68.25000000    74.90000000
   H      0.63000000    69.08000000    76.26000000
   H     -1.37000000    67.67000000    74.67000000
   H     -1.43000000    68.05000000    76.29000000
   H      0.08000000    66.44000000    77.04000000
   H      0.51000000    65.89000000    75.35000000
   H     -2.41000000    66.48000000    77.34000000
   H     -3.31000000    65.09000000    76.80000000
   N      0.59000000    71.16000000    74.71000000
   C      0.21000000    72.45000000    74.17000000
   C      0.92000000    73.54000000    74.96000000
   O      2.13000000    73.41000000    75.17000000
   C      0.47000000    72.59000000    72.67000000
   C      1.82000000    72.10000000    72.15000000
   C     -0.64000000    71.88000000    71.91000000
   H      1.53000000    70.97000000    75.03000000
   H     -0.84000000    72.62000000    74.41000000
   H      0.40000000    73.64000000    72.38000000
   H      2.58000000    72.87000000    72.28000000
   H      2.07000000    71.22000000    72.75000000
   H      1.80000000    71.88000000    71.09000000
   H     -1.64000000    72.27000000    72.13000000
   H     -0.50000000    72.02000000    70.83000000
   H     -0.64000000    70.80000000    72.00000000
   N      0.26000000    74.67000000    75.19000000
   C      0.74000000    75.85000000    75.88000000
   C      0.88000000    76.95000000    74.83000000
   O      0.31000000    76.90000000    73.75000000
   C     -0.37000000    76.18000000    76.87000000
   C     -0.57000000    75.21000000    78.02000000
   N     -1.81000000    75.10000000    78.51000000
   O      0.33000000    74.50000000    78.47000000
   H     -0.72000000    74.77000000    74.95000000
   H      1.67000000    75.71000000    76.43000000
   H     -1.27000000    76.17000000    76.26000000
   H     -0.24000000    77.19000000    77.28000000
   H     -2.55000000    75.63000000    78.08000000
   H     -1.86000000    74.52000000    79.34000000
   N      1.53000000    78.03000000    75.27000000
   C      1.42000000    79.35000000    74.68000000
   C      2.65000000    80.21000000    74.93000000
   O      2.60000000    81.43000000    74.85000000
   C      0.15000000    80.06000000    75.16000000
   C     -0.33000000    81.17000000    74.25000000
   C     -0.78000000    80.79000000    72.98000000
   C     -0.30000000    82.51000000    74.65000000
   C     -1.36000000    81.76000000    72.15000000
   C     -0.93000000    83.48000000    73.86000000
   C     -1.46000000    83.08000000    72.62000000
   O     -2.02000000    84.09000000    71.89000000
   H      1.96000000    77.97000000    76.18000000
   H      1.40000000    79.23000000    73.60000000
   H      0.44000000    80.44000000    76.14000000
   H     -0.64000000    79.36000000    75.42000000
   H     -0.75000000    79.76000000    72.66000000
   H      0.14000000    82.83000000    75.58000000
   H     -1.83000000    81.43000000    71.23000000
   H     -0.84000000    84.49000000    74.23000000
   H     -2.13000000    84.87000000    72.43000000
   N      3.79000000    79.55000000    75.16000000
   C      4.90000000    80.29000000    75.73000000
   C      5.67000000    81.26000000    74.84000000
   O      5.74000000    82.41000000    75.29000000
   C      5.81000000    79.43000000    76.60000000
   C      6.77000000    80.20000000    77.50000000
   C      7.48000000    79.17000000    78.37000000
   O      6.85000000    78.79000000    79.38000000
   O      8.60000000    78.78000000    77.98000000
   H      3.74000000    78.54000000    75.15000000
   H      4.46000000    80.97000000    76.46000000
   H      6.35000000    78.70000000    76.00000000
   H      5.13000000    78.93000000    77.29000000
   H      6.12000000    80.87000000    78.06000000
   H      7.47000000    80.82000000    76.94000000
   N      6.20000000    80.87000000    73.68000000
   C      6.13000000    79.59000000    73.00000000
   C      4.95000000    79.41000000    72.06000000
   O      4.24000000    80.37000000    71.77000000
   C      7.40000000    79.59000000    72.15000000
   C      8.74000000    79.91000000    72.82000000
   C      9.03000000    79.04000000    74.03000000
   O      9.85000000    79.44000000    74.89000000
   O      8.54000000    77.90000000    74.13000000
   H      6.75000000    81.59000000    73.24000000
   H      6.33000000    78.72000000    73.64000000
   H      7.26000000    80.28000000    71.31000000
   H      7.52000000    78.66000000    71.61000000
   H      8.79000000    80.96000000    73.11000000
   H      9.55000000    79.85000000    72.09000000
   N      4.79000000    78.19000000    71.57000000
   C      3.85000000    77.91000000    70.50000000
   H      2.97700000    78.55400000    70.60600000
   H      4.32600000    78.10000000    69.53800000
   H      3.53900000    76.86700000    70.55200000
   H      5.39000000    77.45000000    71.90000000
  Ca      9.60000000    77.08000000    76.36000000
   O     11.89000000    78.63000000    77.11000000
   H     12.74000000    78.26000000    77.33000000
   H     12.05000000    79.16000000    76.33000000
   O     11.38000000    75.14000000    76.92000000
   H     12.18000000    74.80000000    77.32000000
   H     11.03000000    74.41000000    76.42000000
   O      9.00000000    76.18000000    78.99000000
   H      8.75000000    75.39000000    79.47000000
   H      8.36000000    76.84000000    79.27000000
   O      6.91000000    76.54000000    77.05000000
   H      6.81000000    75.70000000    76.60000000
   H      6.30000000    76.49000000    77.78000000

Ca 1.00



