%chk=loop3.apoCaM-CA-Ng.Init293.run77.water6.chk
%nprocshared=20
%mem=10GB
%nosave
#b3lyp/svp scf=(tight,noincore,xqc) Test 
#IOP(5/87=12) Density=Current Pop=(MK,readradii) iop(6/33=2) iop(6/42=6)

loop3.apoCaM-CA-Ng.Init293.run77.water6 

   0  1 
   C     50.21000000    73.92000000    52.11000000
   C     50.26000000    72.64000000    52.94000000
   O     50.90000000    71.65000000    52.60000000
   H     49.86200000    74.74300000    52.73400000
   H     51.20700000    74.14800000    51.73200000
   H     49.52500000    73.78400000    51.27300000
   N     49.64000000    72.65000000    54.12000000
   C     49.24000000    71.43000000    54.80000000
   C     48.81000000    71.81000000    56.21000000
   O     48.46000000    72.92000000    56.58000000
   C     48.10000000    70.70000000    54.10000000
   C     47.83000000    69.25000000    54.50000000
   O     48.77000000    68.43000000    54.59000000
   O     46.66000000    68.95000000    54.82000000
   H     49.06000000    73.44000000    54.35000000
   H     50.09000000    70.74000000    54.83000000
   H     48.18000000    70.65000000    53.02000000
   H     47.21000000    71.32000000    54.23000000
   N     48.85000000    70.82000000    57.12000000
   C     48.52000000    70.86000000    58.53000000
   C     47.04000000    71.05000000    58.82000000
   O     46.32000000    71.75000000    58.10000000
   C     49.38000000    71.92000000    59.22000000
   C     49.74000000    71.66000000    60.68000000
   C     49.99000000    72.99000000    61.38000000
   C     48.82000000    73.96000000    61.35000000
   N     47.68000000    73.36000000    62.06000000
   H     49.28000000    70.00000000    56.73000000
   H     48.95000000    69.97000000    58.98000000
   H     48.89000000    72.88000000    59.08000000
   H     50.33000000    71.97000000    58.70000000
   H     50.60000000    70.99000000    60.76000000
   H     48.90000000    71.22000000    61.21000000
   H     50.88000000    73.57000000    61.10000000
   H     50.18000000    72.76000000    62.43000000
   H     48.66000000    74.19000000    60.29000000
   H     49.14000000    74.86000000    61.87000000
   H     47.88000000    72.76000000    62.84000000
   H     47.10000000    74.08000000    62.48000000
   H     47.22000000    72.80000000    61.36000000
   N     46.54000000    70.51000000    59.93000000
   C     45.15000000    70.50000000    60.35000000
   C     44.48000000    71.86000000    60.50000000
   O     45.14000000    72.82000000    60.90000000
   C     44.93000000    69.63000000    61.59000000
   C     45.94000000    69.75000000    62.72000000
   O     46.29000000    68.81000000    63.48000000
   O     46.59000000    70.81000000    62.83000000
   H     47.17000000    69.98000000    60.51000000
   H     44.57000000    70.07000000    59.54000000
   H     44.89000000    68.63000000    61.15000000
   H     43.92000000    69.85000000    61.94000000
   N     43.17000000    72.03000000    60.27000000
   C     42.49000000    73.30000000    60.15000000
   C     41.08000000    73.23000000    59.59000000
   O     40.85000000    72.74000000    58.49000000
   H     42.58000000    71.22000000    60.17000000
   H     43.01000000    73.95000000    59.44000000
   H     42.62000000    73.83000000    61.10000000
   N     40.11000000    73.71000000    60.37000000
   C     38.68000000    73.75000000    60.14000000
   C     38.14000000    74.83000000    61.06000000
   O     38.59000000    74.93000000    62.20000000
   C     38.15000000    72.36000000    60.48000000
   C     36.63000000    72.24000000    60.42000000
   N     36.06000000    72.82000000    59.36000000
   O     35.90000000    71.79000000    61.30000000
   H     40.32000000    73.98000000    61.32000000
   H     38.39000000    73.97000000    59.11000000
   H     38.40000000    72.02000000    61.48000000
   H     38.49000000    71.59000000    59.79000000
   H     36.54000000    73.34000000    58.64000000
   H     35.05000000    72.84000000    59.29000000
   N     37.28000000    75.71000000    60.55000000
   C     36.71000000    76.83000000    61.27000000
   C     37.66000000    78.01000000    61.48000000
   O     38.71000000    78.11000000    60.84000000
   H     36.97000000    75.55000000    59.60000000
   H     36.37000000    76.54000000    62.26000000
   H     35.82000000    77.15000000    60.73000000
   N     37.18000000    79.00000000    62.23000000
   C     37.94000000    80.20000000    62.53000000
   C     39.34000000    79.98000000    63.09000000
   O     40.04000000    80.93000000    63.41000000
   C     37.87000000    81.11000000    61.30000000
   C     36.44000000    81.22000000    60.85000000
   C     35.45000000    81.86000000    61.62000000
   C     36.14000000    80.75000000    59.57000000
   C     34.19000000    82.12000000    61.09000000
   C     34.81000000    80.81000000    59.13000000
   C     33.84000000    81.52000000    59.86000000
   O     32.58000000    81.61000000    59.35000000
   H     36.33000000    78.89000000    62.76000000
   H     37.48000000    80.65000000    63.41000000
   H     38.56000000    80.78000000    60.52000000
   H     38.22000000    82.10000000    61.57000000
   H     35.69000000    82.11000000    62.64000000
   H     36.85000000    80.20000000    58.97000000
   H     33.42000000    82.63000000    61.65000000
   H     34.45000000    80.21000000    58.30000000
   H     32.51000000    81.18000000    58.49000000
   N     39.78000000    78.75000000    63.36000000
   C     41.02000000    78.33000000    63.98000000
   C     41.27000000    78.78000000    65.41000000
   O     41.77000000    78.06000000    66.27000000
   C     42.21000000    78.67000000    63.08000000
   C     42.08000000    78.45000000    61.58000000
   C     43.59000000    78.14000000    63.48000000
   C     42.12000000    77.00000000    61.10000000
   H     39.16000000    78.06000000    62.95000000
   H     40.99000000    77.24000000    63.97000000
   H     42.28000000    79.76000000    63.13000000
   H     42.85000000    78.98000000    61.02000000
   H     41.12000000    78.85000000    61.25000000
   H     44.35000000    78.79000000    63.04000000
   H     43.79000000    78.16000000    64.55000000
   H     43.70000000    77.10000000    63.16000000
   H     41.51000000    76.39000000    61.77000000
   H     41.71000000    76.86000000    60.10000000
   H     43.12000000    76.57000000    61.06000000
   N     40.70000000    79.90000000    65.86000000
   C     40.72000000    80.41000000    67.22000000
   C     42.13000000    80.68000000    67.73000000
   O     42.47000000    80.41000000    68.88000000
   C     39.82000000    81.65000000    67.28000000
   O     40.08000000    82.58000000    66.25000000
   H     40.18000000    80.53000000    65.28000000
   H     40.35000000    79.66000000    67.92000000
   H     40.01000000    82.17000000    68.22000000
   H     38.81000000    81.28000000    67.19000000
   H     39.34000000    83.16000000    66.04000000
   N     42.99000000    81.08000000    66.80000000
   C     44.42000000    81.34000000    66.87000000
   C     45.26000000    80.10000000    67.12000000
   O     46.47000000    80.27000000    67.24000000
   C     44.76000000    82.48000000    67.83000000
   H     42.60000000    81.13000000    65.87000000
   H     44.75000000    81.57000000    65.86000000
   H     44.39000000    83.37000000    67.33000000
   H     44.41000000    82.25000000    68.84000000
   H     45.84000000    82.65000000    67.87000000
   N     44.71000000    78.88000000    67.03000000
   C     45.43000000    77.65000000    67.27000000
   C     46.48000000    77.49000000    66.18000000
   O     46.20000000    77.46000000    64.99000000
   C     44.58000000    76.39000000    67.33000000
   H     43.71000000    78.84000000    67.06000000
   H     45.98000000    77.76000000    68.21000000
   H     43.79000000    76.45000000    66.58000000
   H     45.16000000    75.49000000    67.13000000
   H     44.06000000    76.26000000    68.28000000
   N     47.72000000    77.25000000    66.62000000
   C     48.93000000    76.84000000    65.95000000
   C     49.51000000    77.81000000    64.92000000
   O     50.12000000    77.40000000    63.94000000
   C     48.68000000    75.41000000    65.50000000
   C     49.89000000    74.52000000    65.26000000
   C     49.65000000    73.02000000    65.35000000
   O     48.80000000    72.48000000    64.61000000
   O     50.37000000    72.29000000    66.07000000
   H     47.83000000    77.44000000    67.61000000
   H     49.73000000    76.80000000    66.69000000
   H     47.96000000    75.38000000    64.67000000
   H     48.21000000    74.90000000    66.34000000
   H     50.72000000    74.89000000    65.87000000
   H     50.09000000    74.84000000    64.24000000
   N     49.14000000    79.09000000    64.98000000
   C     49.41000000    80.13000000    64.00000000
   H     50.43300000    80.03000000    63.63700000
   H     48.71700000    80.03100000    63.16400000
   H     49.28400000    81.10800000    64.46400000
   H     48.66000000    79.44000000    65.80000000
  Ca     47.65000000    70.17000000    65.20000000
   O     47.65000000    71.05000000    67.82000000
   H     47.85000000    70.64000000    68.66000000
   H     46.72000000    71.29000000    67.88000000
   O     48.13000000    67.48000000    65.67000000
   H     48.81000000    67.27000000    66.30000000
   H     47.91000000    66.65000000    65.25000000
   O     45.59000000    69.31000000    66.78000000
   H     45.14000000    68.47000000    66.65000000
   H     45.23000000    69.64000000    67.60000000
   O     45.69000000    72.01000000    65.59000000
   H     45.07000000    71.83000000    64.87000000
   H     45.17000000    71.93000000    66.38000000
   O     49.65000000    69.54000000    63.36000000
   H     50.32000000    68.91000000    63.63000000
   H     49.29000000    69.17000000    62.56000000
   O     50.19000000    69.69000000    66.47000000
   H     50.52000000    70.58000000    66.39000000
   H     50.93000000    69.18000000    66.79000000

Ca 1.00



