%chk=loop1.holoCaM.run39.water2.chk
%nprocshared=20
%mem=10GB
%nosave
#b3lyp/svp scf=(tight,noincore,xqc) Test 
#IOP(5/87=12) Density=Current Pop=(MK,readradii) iop(6/33=2) iop(6/42=6)

loop1.holoCaM.run39.water2 

   0  1 
   C     69.10000000    93.24000000   111.98000000
   C     69.29000000    92.56000000   113.32000000
   O     68.36000000    92.02000000   113.92000000
   H     68.40000000    94.06900000   112.09000000
   H     70.05800000    93.61900000   111.62500000
   H     68.70300000    92.52300000   111.26100000
   N     70.45000000    92.62000000   113.98000000
   C     70.74000000    92.36000000   115.38000000
   C     70.21000000    93.53000000   116.19000000
   O     70.87000000    94.54000000   116.38000000
   C     72.26000000    92.37000000   115.47000000
   C     72.79000000    92.21000000   116.89000000
   O     73.97000000    92.59000000   117.06000000
   O     72.07000000    91.74000000   117.79000000
   H     71.17000000    93.08000000   113.44000000
   H     70.32000000    91.40000000   115.68000000
   H     72.62000000    93.27000000   114.97000000
   H     72.58000000    91.45000000   114.97000000
   N     68.93000000    93.54000000   116.59000000
   C     68.10000000    94.47000000   117.32000000
   C     68.48000000    94.83000000   118.75000000
   O     67.99000000    95.86000000   119.21000000
   C     66.66000000    93.96000000   117.29000000
   C     65.94000000    94.03000000   115.94000000
   C     65.32000000    95.42000000   115.89000000
   C     65.21000000    95.85000000   114.43000000
   N     64.52000000    97.14000000   114.46000000
   H     68.43000000    92.69000000   116.38000000
   H     68.19000000    95.32000000   116.63000000
   H     66.06000000    94.40000000   118.09000000
   H     66.69000000    92.90000000   117.53000000
   H     65.15000000    93.29000000   115.85000000
   H     66.70000000    93.91000000   115.16000000
   H     65.89000000    96.18000000   116.43000000
   H     64.30000000    95.44000000   116.27000000
   H     64.57000000    95.16000000   113.88000000
   H     66.15000000    96.02000000   113.91000000
   H     63.63000000    97.09000000   114.94000000
   H     64.97000000    97.78000000   115.09000000
   H     64.31000000    97.49000000   113.53000000
   N     69.39000000    94.08000000   119.38000000
   C     69.87000000    94.42000000   120.70000000
   C     71.38000000    94.44000000   120.89000000
   O     71.88000000    94.58000000   122.01000000
   C     69.16000000    93.42000000   121.61000000
   C     69.37000000    91.97000000   121.18000000
   O     68.64000000    91.06000000   121.62000000
   O     70.19000000    91.58000000   120.32000000
   H     69.72000000    93.28000000   118.86000000
   H     69.66000000    95.46000000   120.93000000
   H     68.08000000    93.56000000   121.60000000
   H     69.41000000    93.44000000   122.67000000
   N     72.03000000    94.42000000   119.73000000
   C     73.40000000    94.89000000   119.62000000
   C     74.40000000    93.88000000   120.17000000
   O     75.53000000    94.26000000   120.47000000
   H     71.59000000    94.12000000   118.87000000
   H     73.44000000    95.84000000   120.15000000
   H     73.61000000    95.01000000   118.56000000
   N     74.00000000    92.62000000   120.36000000
   C     74.82000000    91.57000000   120.92000000
   C     75.94000000    91.14000000   119.99000000
   O     76.83000000    90.39000000   120.39000000
   C     74.01000000    90.42000000   121.51000000
   C     73.09000000    89.69000000   120.55000000
   O     71.96000000    89.30000000   120.93000000
   O     73.34000000    89.38000000   119.37000000
   H     73.02000000    92.50000000   120.13000000
   H     75.34000000    92.00000000   121.78000000
   H     73.32000000    90.88000000   122.22000000
   H     74.62000000    89.69000000   122.05000000
   N     75.93000000    91.57000000   118.72000000
   C     76.84000000    91.22000000   117.65000000
   C     76.51000000    89.93000000   116.93000000
   O     77.26000000    89.41000000   116.10000000
   H     75.02000000    91.87000000   118.41000000
   H     77.76000000    90.97000000   118.17000000
   H     76.88000000    92.00000000   116.88000000
   N     75.35000000    89.38000000   117.30000000
   C     74.86000000    88.11000000   116.78000000
   C     73.42000000    88.10000000   116.29000000
   O     72.64000000    88.95000000   116.71000000
   C     74.93000000    86.92000000   117.73000000
   C     76.33000000    86.75000000   118.33000000
   O     73.98000000    86.96000000   118.77000000
   H     74.67000000    89.95000000   117.78000000
   H     75.46000000    87.91000000   115.89000000
   H     74.76000000    85.98000000   117.22000000
   H     73.97000000    87.90000000   118.99000000
   H     76.58000000    87.52000000   119.06000000
   H     76.48000000    85.76000000   118.75000000
   H     77.05000000    86.87000000   117.52000000
   N     73.05000000    87.16000000   115.42000000
   C     71.70000000    86.89000000   114.96000000
   C     71.05000000    85.68000000   115.61000000
   O     71.61000000    84.59000000   115.55000000
   C     71.69000000    86.84000000   113.43000000
   C     71.98000000    88.16000000   112.72000000
   C     70.45000000    86.22000000   112.80000000
   C     70.98000000    89.30000000   112.92000000
   H     73.82000000    86.66000000   115.00000000
   H     70.96000000    87.65000000   115.21000000
   H     72.44000000    86.13000000   113.08000000
   H     72.08000000    88.09000000   111.64000000
   H     72.91000000    88.48000000   113.18000000
   H     69.58000000    86.68000000   113.26000000
   H     70.59000000    86.35000000   111.73000000
   H     70.41000000    85.16000000   113.07000000
   H     71.37000000    90.11000000   112.31000000
   H     70.00000000    89.08000000   112.51000000
   H     70.89000000    89.67000000   113.94000000
   N     69.92000000    85.78000000   116.32000000
   C     69.12000000    84.69000000   116.84000000
   C     68.02000000    84.42000000   115.81000000
   O     67.67000000    85.23000000   114.95000000
   C     68.59000000    84.90000000   118.26000000
   C     67.68000000    86.12000000   118.30000000
   O     67.90000000    83.77000000   118.74000000
   H     69.42000000    86.66000000   116.27000000
   H     69.73000000    83.80000000   116.90000000
   H     69.43000000    85.14000000   118.92000000
   H     67.65000000    83.92000000   119.65000000
   H     67.54000000    86.50000000   119.31000000
   H     67.99000000    86.99000000   117.73000000
   H     66.69000000    85.88000000   117.92000000
   N     67.26000000    83.34000000   116.01000000
   C     66.37000000    82.85000000   114.98000000
   C     65.19000000    83.77000000   114.69000000
   O     64.88000000    83.82000000   113.50000000
   C     65.77000000    81.49000000   115.32000000
   C     66.82000000    80.38000000   115.23000000
   O     65.02000000    81.44000000   116.51000000
   H     67.41000000    82.76000000   116.82000000
   H     66.98000000    82.63000000   114.11000000
   H     65.06000000    81.32000000   114.50000000
   H     64.33000000    80.78000000   116.41000000
   H     67.54000000    80.49000000   116.04000000
   H     66.41000000    79.37000000   115.14000000
   H     67.26000000    80.47000000   114.23000000
   N     64.57000000    84.46000000   115.66000000
   C     63.65000000    85.57000000   115.52000000
   C     64.19000000    86.72000000   114.69000000
   O     63.42000000    87.40000000   114.02000000
   C     63.35000000    86.13000000   116.91000000
   C     62.03000000    86.89000000   116.94000000
   C     61.44000000    86.94000000   118.35000000
   C     60.11000000    87.69000000   118.34000000
   N     59.77000000    88.32000000   119.63000000
   H     64.91000000    84.40000000   116.61000000
   H     62.73000000    85.20000000   115.06000000
   H     64.16000000    86.82000000   117.18000000
   H     63.33000000    85.31000000   117.62000000
   H     61.31000000    86.36000000   116.31000000
   H     62.16000000    87.89000000   116.51000000
   H     62.11000000    87.47000000   119.02000000
   H     61.40000000    85.92000000   118.72000000
   H     59.38000000    87.03000000   117.86000000
   H     60.11000000    88.54000000   117.66000000
   H     59.46000000    87.69000000   120.35000000
   H     60.49000000    88.97000000   119.90000000
   H     58.96000000    88.90000000   119.52000000
   N     65.50000000    86.98000000   114.66000000
   C     66.03000000    88.06000000   113.86000000
   C     66.20000000    87.57000000   112.43000000
   O     65.76000000    88.31000000   111.55000000
   C     67.31000000    88.54000000   114.54000000
   C     67.09000000    89.15000000   115.91000000
   C     68.35000000    89.49000000   116.69000000
   O     69.32000000    88.71000000   116.57000000
   O     68.48000000    90.48000000   117.45000000
   H     66.17000000    86.38000000   115.13000000
   H     65.28000000    88.85000000   113.82000000
   H     67.80000000    89.29000000   113.92000000
   H     68.05000000    87.74000000   114.58000000
   H     66.55000000    88.43000000   116.54000000
   H     66.44000000    90.03000000   115.82000000
   N     66.81000000    86.39000000   112.30000000
   C     66.68000000    85.65000000   111.06000000
   H     66.06100000    86.21600000   110.36300000
   H     67.66700000    85.49400000   110.62400000
   H     66.21300000    84.68500000   111.25900000
   H     67.14000000    85.87000000   113.10000000
  Ca     70.82000000    89.69000000   118.58800000
   O     68.89000000    88.76000000   120.19800000
   H     68.80000000    89.54000000   120.75800000
   H     68.75000000    88.02000000   120.78800000
   O     71.23000000    87.04000000   118.92800000
   H     71.10000000    86.53000000   119.72800000
   H     72.10000000    86.79000000   118.61800000

Ca 1.00



