%chk=loop4.apoCaM-CA-Ng.Init295.run34.water3.chk
%nprocshared=20
%mem=10GB
%nosave
#b3lyp/svp scf=(tight,noincore,xqc) Test 
#IOP(5/87=12) Density=Current Pop=(MK,readradii) iop(6/33=2) iop(6/42=6)

loop4.apoCaM-CA-Ng.Init295.run34.water3 

   -3  1 
   C     84.43000000    45.27000000    80.24000000
   C     85.40000000    44.13000000    80.52000000
   O     86.29000000    43.81000000    79.74000000
   H     83.52300000    45.12700000    80.82700000
   H     84.89400000    46.21800000    80.51400000
   H     84.17800000    45.28100000    79.18000000
   N     85.21000000    43.49000000    81.67000000
   C     85.94000000    42.39000000    82.28000000
   C     87.37000000    42.77000000    82.67000000
   O     88.28000000    41.97000000    82.46000000
   C     85.80000000    41.11000000    81.47000000
   C     84.32000000    40.74000000    81.40000000
   O     83.82000000    40.15000000    80.43000000
   O     83.46000000    41.09000000    82.24000000
   H     84.52000000    43.89000000    82.29000000
   H     85.37000000    42.26000000    83.20000000
   H     86.38000000    40.30000000    81.92000000
   H     86.16000000    41.28000000    80.46000000
   N     87.59000000    43.91000000    83.31000000
   C     88.90000000    44.37000000    83.73000000
   C     88.89000000    44.67000000    85.22000000
   O     88.00000000    45.41000000    85.62000000
   C     89.29000000    45.62000000    82.96000000
   C     89.58000000    45.28000000    81.50000000
   C     90.54000000    46.32000000    83.50000000
   C     90.74000000    44.32000000    81.26000000
   H     86.75000000    44.39000000    83.62000000
   H     89.69000000    43.69000000    83.41000000
   H     88.48000000    46.35000000    82.91000000
   H     89.76000000    46.21000000    80.96000000
   H     88.68000000    44.87000000    81.04000000
   H     90.79000000    47.16000000    82.85000000
   H     90.31000000    46.67000000    84.50000000
   H     91.34000000    45.59000000    83.58000000
   H     91.03000000    44.34000000    80.21000000
   H     91.59000000    44.66000000    81.84000000
   H     90.45000000    43.31000000    81.55000000
   N     89.68000000    44.07000000    86.12000000
   C     90.84000000    43.24000000    85.87000000
   C     90.59000000    41.82000000    85.38000000
   O     91.38000000    41.26000000    84.63000000
   C     91.70000000    43.12000000    87.12000000
   C     92.43000000    44.43000000    87.38000000
   O     91.85000000    45.39000000    87.94000000
   O     93.55000000    44.55000000    86.85000000
   H     89.50000000    44.23000000    87.10000000
   H     91.40000000    43.74000000    85.08000000
   H     92.45000000    42.36000000    86.93000000
   H     91.11000000    42.86000000    88.00000000
   N     89.49000000    41.23000000    85.86000000
   C     88.98000000    39.98000000    85.34000000
   C     90.03000000    38.88000000    85.45000000
   O     90.64000000    38.68000000    86.49000000
   H     88.97000000    41.69000000    86.59000000
   H     88.72000000    40.14000000    84.29000000
   H     88.06000000    39.65000000    85.82000000
   N     90.14000000    38.12000000    84.35000000
   C     90.98000000    36.94000000    84.31000000
   C     92.03000000    36.94000000    83.21000000
   O     92.75000000    35.95000000    83.05000000
   C     90.09000000    35.71000000    84.15000000
   C     89.39000000    35.41000000    82.84000000
   O     89.47000000    36.19000000    81.87000000
   O     88.80000000    34.30000000    82.80000000
   H     89.72000000    38.45000000    83.49000000
   H     91.58000000    36.92000000    85.22000000
   H     89.38000000    35.79000000    84.97000000
   H     90.73000000    34.85000000    84.34000000
   N     92.09000000    37.99000000    82.39000000
   C     92.96000000    38.15000000    81.23000000
   C     92.29000000    37.76000000    79.92000000
   O     92.86000000    38.19000000    78.93000000
   H     91.45000000    38.74000000    82.59000000
   H     93.88000000    37.60000000    81.39000000
   H     93.30000000    39.19000000    81.20000000
   N     91.20000000    36.99000000    79.84000000
   C     90.46000000    36.40000000    78.73000000
   C     90.17000000    37.36000000    77.59000000
   O     90.68000000    37.21000000    76.47000000
   C     91.14000000    35.07000000    78.41000000
   C     90.19000000    34.15000000    77.64000000
   C     90.67000000    32.72000000    77.45000000
   N     91.10000000    32.05000000    78.52000000
   O     91.03000000    32.29000000    76.36000000
   H     90.83000000    36.72000000    80.74000000
   H     89.48000000    36.12000000    79.11000000
   H     91.41000000    34.56000000    79.33000000
   H     92.02000000    35.23000000    77.79000000
   H     89.87000000    34.59000000    76.69000000
   H     89.27000000    34.02000000    78.21000000
   H     90.79000000    32.26000000    79.45000000
   H     91.82000000    31.36000000    78.36000000
   N     89.46000000    38.45000000    77.88000000
   C     89.36000000    39.56000000    76.95000000
   C     88.42000000    39.35000000    75.78000000
   O     87.40000000    38.68000000    75.97000000
   C     89.16000000    40.85000000    77.73000000
   C     87.91000000    41.07000000    78.59000000
   C     90.32000000    41.15000000    78.68000000
   H     89.05000000    38.49000000    78.80000000
   H     90.34000000    39.73000000    76.49000000
   H     89.32000000    41.62000000    76.98000000
   H     87.71000000    40.22000000    79.25000000
   H     88.18000000    41.93000000    79.21000000
   H     87.08000000    41.34000000    77.95000000
   H     90.13000000    42.17000000    79.03000000
   H     90.32000000    40.55000000    79.58000000
   H     91.30000000    41.12000000    78.20000000
   N     88.66000000    39.87000000    74.57000000
   C     87.89000000    39.53000000    73.39000000
   C     87.21000000    40.76000000    72.82000000
   O     87.60000000    41.92000000    72.98000000
   C     88.76000000    38.73000000    72.42000000
   C     88.04000000    38.05000000    71.27000000
   N     86.81000000    37.56000000    71.40000000
   O     88.51000000    38.10000000    70.13000000
   H     89.43000000    40.53000000    74.58000000
   H     87.13000000    38.81000000    73.70000000
   H     88.95000000    37.81000000    72.98000000
   H     89.63000000    39.28000000    72.07000000
   H     86.40000000    37.43000000    72.31000000
   H     86.29000000    37.24000000    70.59000000
   N     86.06000000    40.53000000    72.19000000
   C     85.23000000    41.41000000    71.38000000
   C     83.75000000    41.50000000    71.72000000
   O     82.91000000    41.72000000    70.85000000
   C     85.48000000    41.08000000    69.91000000
   C     85.49000000    42.30000000    69.02000000
   C     86.42000000    43.33000000    69.13000000
   C     84.54000000    42.38000000    67.99000000
   C     86.33000000    44.47000000    68.32000000
   C     84.49000000    43.47000000    67.12000000
   C     85.38000000    44.55000000    67.28000000
   O     85.37000000    45.66000000    66.49000000
   H     85.73000000    39.60000000    72.38000000
   H     85.56000000    42.43000000    71.56000000
   H     84.78000000    40.37000000    69.49000000
   H     86.48000000    40.67000000    69.77000000
   H     87.22000000    43.41000000    69.86000000
   H     83.76000000    41.64000000    67.82000000
   H     87.00000000    45.31000000    68.44000000
   H     83.80000000    43.45000000    66.28000000
   H     84.73000000    45.55000000    65.78000000
   N     83.39000000    41.32000000    72.99000000
   C     82.00000000    41.08000000    73.33000000
   C     81.19000000    42.37000000    73.39000000
   O     80.15000000    42.51000000    72.75000000
   C     81.98000000    40.25000000    74.61000000
   C     80.73000000    39.39000000    74.72000000
   C     80.52000000    38.61000000    76.01000000
   O     80.98000000    37.45000000    76.00000000
   O     79.83000000    39.05000000    76.95000000
   H     84.12000000    41.10000000    73.65000000
   H     81.59000000    40.52000000    72.49000000
   H     81.99000000    40.93000000    75.47000000
   H     82.87000000    39.64000000    74.78000000
   H     80.65000000    38.71000000    73.87000000
   H     79.90000000    40.07000000    74.49000000
   N     81.52000000    43.46000000    74.08000000
   C     82.68000000    43.76000000    74.89000000
   C     83.74000000    44.53000000    74.11000000
   O     83.66000000    44.65000000    72.89000000
   C     82.19000000    44.61000000    76.06000000
   C     81.06000000    43.96000000    76.86000000
   C     81.43000000    42.82000000    77.81000000
   O     80.52000000    42.41000000    78.55000000
   O     82.59000000    42.37000000    77.91000000
   H     80.97000000    44.25000000    73.78000000
   H     83.18000000    42.86000000    75.26000000
   H     81.75000000    45.53000000    75.66000000
   H     82.98000000    44.82000000    76.78000000
   H     80.30000000    43.61000000    76.16000000
   H     80.61000000    44.76000000    77.43000000
   N     84.77000000    45.11000000    74.74000000
   C     85.98000000    45.83000000    74.39000000
   H     86.78800000    45.11900000    74.21700000
   H     85.80800000    46.41200000    73.48400000
   H     86.25400000    46.49900000    75.20600000
   H     84.65000000    44.99000000    75.73000000
  Ca     81.33000000    41.17000000    80.65000000
   O     81.30000000    39.38000000    82.63000000
   H     81.14000000    38.56000000    83.10000000
   H     82.05000000    39.77000000    83.07000000
   O     81.31000000    39.10000000    79.10000000
   H     81.93000000    38.44000000    78.79000000
   H     80.72000000    39.24000000    78.37000000
   O     78.83000000    40.47000000    80.43000000
   H     78.27000000    40.70000000    79.69000000
   H     78.29000000    39.89000000    80.96000000

Ca 1.00



