%chk=loop3.holoCaM-CaMKII.run94.water3.chk
%nprocshared=20
%mem=10GB
%nosave
#b3lyp/svp scf=(tight,noincore,xqc) Test 
#IOP(5/87=12) Density=Current Pop=(MK,readradii) iop(6/33=2) iop(6/42=6)

loop3.holoCaM-CaMKII.run94.water3 

   0  1 
   C     43.02000000    26.99000000     0.06700000
   C     42.39000000    27.29000000     1.41700000
   O     41.90000000    26.35000000     2.03700000
   H     44.03300000    26.61700000     0.21500000
   H     42.42800000    26.23600000    -0.45100000
   H     43.05200000    27.90100000    -0.53000000
   N     42.45000000    28.53000000     1.90700000
   C     41.92000000    29.01000000     3.16700000
   C     40.41000000    28.91000000     3.09700000
   O     39.69000000    29.43000000     2.25700000
   C     42.32000000    30.48000000     3.31700000
   C     41.96000000    31.12000000     4.64700000
   O     42.17000000    32.35000000     4.68700000
   O     41.43000000    30.52000000     5.60700000
   H     42.76000000    29.23000000     1.24700000
   H     42.37000000    28.43000000     3.97700000
   H     41.88000000    31.15000000     2.57700000
   H     43.40000000    30.52000000     3.19700000
   N     39.93000000    28.11000000     4.05700000
   C     38.55000000    27.64000000     4.06700000
   C     37.47000000    28.60000000     4.55700000
   O     36.31000000    28.30000000     4.31700000
   C     38.55000000    26.30000000     4.78700000
   C     37.32000000    25.48000000     4.41700000
   C     37.52000000    23.99000000     4.69700000
   C     36.27000000    23.27000000     4.21700000
   N     36.19000000    21.86000000     4.64700000
   H     40.63000000    27.73000000     4.67700000
   H     38.25000000    27.51000000     3.02700000
   H     38.55000000    26.58000000     5.83700000
   H     39.40000000    25.67000000     4.48700000
   H     37.18000000    25.55000000     3.33700000
   H     36.36000000    25.66000000     4.90700000
   H     37.64000000    23.87000000     5.76700000
   H     38.39000000    23.54000000     4.20700000
   H     36.37000000    23.20000000     3.13700000
   H     35.31000000    23.72000000     4.44700000
   H     36.07000000    21.78000000     5.64700000
   H     35.38000000    21.46000000     4.18700000
   H     37.02000000    21.34000000     4.40700000
   N     37.86000000    29.75000000     5.10700000
   C     37.03000000    30.78000000     5.68700000
   C     37.50000000    32.20000000     5.39700000
   O     36.94000000    33.17000000     5.89700000
   C     36.94000000    30.50000000     7.18700000
   C     38.17000000    30.45000000     8.07700000
   O     38.03000000    30.18000000     9.28700000
   O     39.28000000    30.80000000     7.60700000
   H     38.84000000    29.84000000     5.33700000
   H     36.03000000    30.77000000     5.25700000
   H     36.47000000    29.54000000     7.38700000
   H     36.31000000    31.34000000     7.51700000
   N     38.61000000    32.30000000     4.66700000
   C     39.27000000    33.55000000     4.36700000
   C     39.96000000    34.28000000     5.51700000
   O     40.21000000    35.47000000     5.33700000
   H     39.18000000    31.47000000     4.53700000
   H     38.55000000    34.24000000     3.92700000
   H     40.06000000    33.50000000     3.62700000
   N     40.22000000    33.62000000     6.64700000
   C     40.78000000    34.27000000     7.81700000
   C     42.25000000    34.65000000     7.71700000
   O     42.80000000    35.35000000     8.55700000
   C     40.54000000    33.42000000     9.05700000
   C     41.60000000    32.41000000     9.47700000
   N     42.10000000    32.53000000    10.70700000
   O     42.07000000    31.57000000     8.71700000
   H     40.02000000    32.63000000     6.64700000
   H     40.19000000    35.18000000     7.90700000
   H     39.62000000    32.85000000     9.08700000
   H     40.52000000    34.14000000     9.87700000
   H     41.76000000    33.26000000    11.31700000
   H     42.92000000    31.99000000    10.94700000
   N     42.89000000    34.21000000     6.62700000
   C     44.26000000    34.53000000     6.30700000
   C     45.23000000    33.45000000     6.75700000
   O     46.43000000    33.70000000     6.76700000
   H     42.47000000    33.69000000     5.87700000
   H     44.44000000    35.52000000     6.73700000
   H     44.25000000    34.64000000     5.21700000
   N     44.79000000    32.27000000     7.20700000
   C     45.65000000    31.21000000     7.69700000
   C     45.14000000    29.83000000     7.32700000
   O     43.93000000    29.70000000     7.16700000
   C     45.84000000    31.37000000     9.19700000
   C     46.36000000    32.67000000     9.77700000
   C     47.71000000    32.84000000    10.10700000
   C     45.50000000    33.76000000     9.95700000
   C     48.18000000    34.03000000    10.67700000
   C     45.93000000    35.00000000    10.45700000
   C     47.27000000    35.09000000    10.87700000
   O     47.65000000    36.19000000    11.57700000
   H     43.80000000    32.10000000     7.14700000
   H     46.64000000    31.41000000     7.27700000
   H     46.48000000    30.53000000     9.46700000
   H     44.86000000    31.24000000     9.64700000
   H     48.34000000    31.97000000    10.02700000
   H     44.45000000    33.69000000     9.72700000
   H     49.17000000    34.15000000    11.08700000
   H     45.27000000    35.83000000    10.62700000
   H     48.60000000    36.33000000    11.66700000
   N     46.09000000    28.91000000     7.14700000
   C     45.71000000    27.56000000     6.76700000
   C     46.24000000    26.59000000     7.80700000
   O     47.43000000    26.63000000     8.11700000
   C     46.25000000    27.31000000     5.36700000
   C     45.96000000    28.44000000     4.37700000
   C     45.76000000    25.95000000     4.87700000
   C     46.71000000    28.27000000     3.06700000
   H     47.05000000    29.19000000     7.27700000
   H     44.62000000    27.47000000     6.81700000
   H     47.32000000    27.24000000     5.51700000
   H     46.28000000    29.40000000     4.78700000
   H     44.89000000    28.54000000     4.17700000
   H     44.68000000    25.94000000     5.05700000
   H     45.99000000    25.75000000     3.83700000
   H     46.07000000    25.14000000     5.53700000
   H     46.72000000    27.30000000     2.56700000
   H     46.27000000    29.04000000     2.43700000
   H     47.75000000    28.56000000     3.24700000
   N     45.41000000    25.64000000     8.23700000
   C     45.72000000    24.43000000     8.97700000
   C     45.65000000    23.13000000     8.18700000
   O     45.22000000    23.15000000     7.02700000
   C     44.76000000    24.36000000    10.16700000
   O     44.71000000    25.53000000    10.93700000
   H     44.43000000    25.80000000     8.07700000
   H     46.74000000    24.55000000     9.34700000
   H     45.14000000    23.56000000    10.80700000
   H     43.79000000    24.07000000     9.75700000
   H     45.62000000    25.82000000    11.02700000
   N     46.02000000    22.02000000     8.80700000
   C     46.09000000    20.79000000     8.04700000
   C     44.83000000    20.22000000     7.40700000
   O     44.87000000    19.61000000     6.33700000
   C     46.78000000    19.74000000     8.91700000
   H     46.46000000    22.04000000     9.71700000
   H     46.79000000    21.03000000     7.24700000
   H     46.20000000    19.39000000     9.76700000
   H     46.91000000    18.89000000     8.24700000
   H     47.74000000    20.10000000     9.28700000
   N     43.67000000    20.33000000     8.06700000
   C     42.40000000    19.83000000     7.57700000
   C     41.92000000    20.69000000     6.41700000
   O     41.18000000    20.17000000     5.58700000
   C     41.44000000    19.88000000     8.75700000
   H     43.75000000    20.65000000     9.01700000
   H     42.40000000    18.75000000     7.38700000
   H     41.73000000    19.16000000     9.51700000
   H     41.37000000    20.88000000     9.17700000
   H     40.41000000    19.65000000     8.45700000
   N     42.32000000    21.96000000     6.31700000
   C     41.99000000    22.79000000     5.17700000
   C     42.84000000    22.31000000     4.01700000
   O     42.35000000    22.04000000     2.91700000
   C     42.37000000    24.25000000     5.45700000
   C     41.45000000    24.88000000     6.49700000
   C     41.74000000    26.34000000     6.83700000
   O     42.41000000    26.61000000     7.84700000
   O     41.30000000    27.32000000     6.20700000
   H     43.07000000    22.24000000     6.92700000
   H     40.96000000    22.80000000     4.82700000
   H     42.18000000    24.82000000     4.54700000
   H     43.42000000    24.41000000     5.68700000
   H     41.54000000    24.34000000     7.43700000
   H     40.41000000    24.79000000     6.16700000
   N     44.14000000    22.14000000     4.25700000
   C     45.01000000    21.60000000     3.23700000
   H     45.97300000    21.34500000     3.67900000
   H     44.55800000    20.70400000     2.81000000
   H     45.15600000    22.34300000     2.45300000
   H     44.49000000    22.41000000     5.16700000
  Ca     41.30000000    29.25000000     7.87000000
   O     42.87000000    28.89000000    10.01000000
   H     43.05000000    28.03000000    10.38000000
   H     42.79000000    29.47000000    10.77000000
   O     39.36000000    27.51000000     8.55000000
   H     38.43000000    27.69000000     8.68000000
   H     39.40000000    26.57000000     8.39000000
   O     40.29000000    29.68000000    10.55000000
   H     40.41000000    30.31000000    11.27000000
   H     39.37000000    29.74000000    10.32000000

Ca 1.00



