%chk=loop3.apoCaM-CA-Ng.Init293.run90.water6.chk
%nprocshared=20
%mem=10GB
%nosave
#b3lyp/svp scf=(tight,noincore,xqc) Test 
#IOP(5/87=12) Density=Current Pop=(MK,readradii) iop(6/33=2) iop(6/42=6)

loop3.apoCaM-CA-Ng.Init293.run90.water6 

   0  1 
   C     78.48000000    64.60000000    18.79000000
   C     79.74000000    63.96000000    19.36000000
   O     80.85000000    64.42000000    19.07000000
   H     77.70300000    64.61400000    19.55400000
   H     78.70000000    65.62100000    18.47700000
   H     78.13500000    64.02300000    17.93200000
   N     79.68000000    62.87000000    20.12000000
   C     80.84000000    62.18000000    20.66000000
   C     80.80000000    61.88000000    22.15000000
   O     79.71000000    61.68000000    22.68000000
   C     81.15000000    60.88000000    19.93000000
   C     82.32000000    60.07000000    20.46000000
   O     83.29000000    60.72000000    20.90000000
   O     82.31000000    58.83000000    20.31000000
   H     78.75000000    62.57000000    20.37000000
   H     81.73000000    62.79000000    20.56000000
   H     81.28000000    61.10000000    18.87000000
   H     80.25000000    60.27000000    19.95000000
   N     81.91000000    61.84000000    22.91000000
   C     82.11000000    61.49000000    24.30000000
   C     81.91000000    60.00000000    24.54000000
   O     81.00000000    59.35000000    24.04000000
   C     81.27000000    62.32000000    25.26000000
   C     81.93000000    62.49000000    26.63000000
   C     80.87000000    62.77000000    27.69000000
   C     79.95000000    61.57000000    27.93000000
   N     80.52000000    60.52000000    28.78000000
   H     82.75000000    61.75000000    22.36000000
   H     83.14000000    61.78000000    24.50000000
   H     80.31000000    61.81000000    25.32000000
   H     81.00000000    63.30000000    24.86000000
   H     82.54000000    63.39000000    26.63000000
   H     82.68000000    61.76000000    26.94000000
   H     80.29000000    63.57000000    27.24000000
   H     81.37000000    63.03000000    28.62000000
   H     79.55000000    61.06000000    27.05000000
   H     79.06000000    62.00000000    28.38000000
   H     79.85000000    59.77000000    28.81000000
   H     81.28000000    60.12000000    28.23000000
   H     80.84000000    60.72000000    29.72000000
   N     82.67000000    59.39000000    25.45000000
   C     82.63000000    58.00000000    25.86000000
   C     81.31000000    57.65000000    26.53000000
   O     80.49000000    58.51000000    26.84000000
   C     83.77000000    57.53000000    26.75000000
   C     84.02000000    58.34000000    28.01000000
   O     83.26000000    59.29000000    28.30000000
   O     84.98000000    58.04000000    28.76000000
   H     83.44000000    59.92000000    25.85000000
   H     82.63000000    57.44000000    24.92000000
   H     84.73000000    57.57000000    26.23000000
   H     83.54000000    56.50000000    27.03000000
   N     81.04000000    56.37000000    26.79000000
   C     79.83000000    55.86000000    27.40000000
   C     79.91000000    55.81000000    28.92000000
   O     80.96000000    55.55000000    29.50000000
   H     81.76000000    55.70000000    26.53000000
   H     79.76000000    54.82000000    27.07000000
   H     78.99000000    56.39000000    26.95000000
   N     78.72000000    55.75000000    29.52000000
   C     78.53000000    55.55000000    30.95000000
   C     77.43000000    54.56000000    31.31000000
   O     76.50000000    54.82000000    32.08000000
   C     78.27000000    56.92000000    31.57000000
   C     79.22000000    58.04000000    31.18000000
   N     80.45000000    58.13000000    31.69000000
   O     78.94000000    58.69000000    30.17000000
   H     77.92000000    55.97000000    28.96000000
   H     79.46000000    55.18000000    31.38000000
   H     78.24000000    56.84000000    32.65000000
   H     77.26000000    57.23000000    31.30000000
   H     80.59000000    57.63000000    32.56000000
   H     80.93000000    58.97000000    31.40000000
   N     77.32000000    53.48000000    30.54000000
   C     76.11000000    52.68000000    30.58000000
   C     74.84000000    53.46000000    30.30000000
   O     74.85000000    54.32000000    29.43000000
   H     77.97000000    53.39000000    29.77000000
   H     76.02000000    52.27000000    31.59000000
   H     76.14000000    51.81000000    29.92000000
   N     73.76000000    53.19000000    31.04000000
   C     72.48000000    53.85000000    31.18000000
   C     72.48000000    55.33000000    31.54000000
   O     71.51000000    55.78000000    32.14000000
   C     71.56000000    53.53000000    30.01000000
   C     70.11000000    53.47000000    30.42000000
   C     69.69000000    52.39000000    31.20000000
   C     69.23000000    54.51000000    30.13000000
   C     68.35000000    52.28000000    31.60000000
   C     67.88000000    54.40000000    30.48000000
   C     67.43000000    53.25000000    31.15000000
   O     66.09000000    53.09000000    31.40000000
   H     73.88000000    52.57000000    31.83000000
   H     72.04000000    53.44000000    32.10000000
   H     71.78000000    52.53000000    29.64000000
   H     71.66000000    54.24000000    29.18000000
   H     70.37000000    51.56000000    31.37000000
   H     69.56000000    55.41000000    29.64000000
   H     67.98000000    51.38000000    32.06000000
   H     67.15000000    55.20000000    30.39000000
   H     65.49000000    53.80000000    31.16000000
   N     73.52000000    56.04000000    31.08000000
   C     73.81000000    57.46000000    31.22000000
   C     73.76000000    57.92000000    32.67000000
   O     74.79000000    58.30000000    33.21000000
   C     72.93000000    58.24000000    30.25000000
   C     72.54000000    57.70000000    28.87000000
   C     73.50000000    59.66000000    30.22000000
   C     73.70000000    57.42000000    27.93000000
   H     74.26000000    55.56000000    30.60000000
   H     74.82000000    57.68000000    30.87000000
   H     71.96000000    58.36000000    30.72000000
   H     71.80000000    58.34000000    28.38000000
   H     72.10000000    56.73000000    29.09000000
   H     73.83000000    60.04000000    31.18000000
   H     74.37000000    59.63000000    29.57000000
   H     72.79000000    60.38000000    29.81000000
   H     74.06000000    56.43000000    28.22000000
   H     73.49000000    57.39000000    26.86000000
   H     74.54000000    58.09000000    28.12000000
   N     72.62000000    57.80000000    33.36000000
   C     72.32000000    58.06000000    34.75000000
   C     72.48000000    59.47000000    35.29000000
   O     72.75000000    59.67000000    36.47000000
   C     71.01000000    57.41000000    35.19000000
   O     69.92000000    57.96000000    34.48000000
   H     71.91000000    57.35000000    32.80000000
   H     73.01000000    57.47000000    35.36000000
   H     70.84000000    57.68000000    36.23000000
   H     71.04000000    56.34000000    34.97000000
   H     69.17000000    57.37000000    34.56000000
   N     72.35000000    60.49000000    34.44000000
   C     72.92000000    61.83000000    34.48000000
   C     74.39000000    61.99000000    34.83000000
   O     74.87000000    63.05000000    35.21000000
   C     71.92000000    62.74000000    35.18000000
   H     72.00000000    60.17000000    33.55000000
   H     72.85000000    62.07000000    33.42000000
   H     72.22000000    63.78000000    35.04000000
   H     70.91000000    62.44000000    34.90000000
   H     71.96000000    62.58000000    36.26000000
   N     75.27000000    61.05000000    34.49000000
   C     76.69000000    61.32000000    34.37000000
   C     77.16000000    62.10000000    33.15000000
   O     76.75000000    61.91000000    32.01000000
   C     77.39000000    59.98000000    34.55000000
   H     74.93000000    60.24000000    33.99000000
   H     76.99000000    61.91000000    35.24000000
   H     77.10000000    59.35000000    33.71000000
   H     78.47000000    60.16000000    34.55000000
   H     77.09000000    59.45000000    35.45000000
   N     78.12000000    63.02000000    33.32000000
   C     78.85000000    63.72000000    32.29000000
   C     78.06000000    64.64000000    31.36000000
   O     78.61000000    65.03000000    30.33000000
   C     79.92000000    62.80000000    31.70000000
   C     80.69000000    61.94000000    32.69000000
   C     81.99000000    61.60000000    31.96000000
   O     82.05000000    60.67000000    31.13000000
   O     83.03000000    62.23000000    32.25000000
   H     78.51000000    63.12000000    34.25000000
   H     79.41000000    64.43000000    32.90000000
   H     80.69000000    63.43000000    31.25000000
   H     79.47000000    62.12000000    30.97000000
   H     80.11000000    61.05000000    32.92000000
   H     80.82000000    62.41000000    33.66000000
   N     76.87000000    65.08000000    31.76000000
   C     75.96000000    65.74000000    30.83000000
   H     75.07500000    66.08000000    31.36800000
   H     76.46000000    66.59600000    30.37700000
   H     75.66400000    65.03800000    30.05100000
   H     76.63000000    64.83000000    32.71000000
  Ca     84.38000000    59.66000000    30.74000000
   O     83.93000000    59.10000000    33.21000000
   H     84.03000000    59.91000000    33.71000000
   H     84.64000000    58.54000000    33.54000000
   O     84.28000000    61.74000000    29.20000000
   H     84.15000000    61.61000000    28.26000000
   H     84.79000000    62.55000000    29.25000000
   O     86.22000000    57.84000000    31.49000000
   H     87.09000000    58.17000000    31.27000000
   H     86.38000000    57.11000000    32.09000000
   O     86.03000000    60.91000000    32.64000000
   H     86.27000000    61.77000000    33.00000000
   H     86.79000000    60.35000000    32.83000000
   O     87.08000000    59.98000000    29.77000000
   H     87.58000000    59.18000000    29.62000000
   H     87.67000000    60.54000000    30.28000000
   O     83.06000000    57.04000000    30.99000000
   H     83.15000000    56.49000000    31.77000000
   H     82.28000000    56.71000000    30.55000000

Ca 1.00



