%chk=loop2.holoCaM.run22.water1.chk
%nprocshared=20
%mem=10GB
%nosave
#b3lyp/svp scf=(tight,noincore,xqc) Test 
#IOP(5/87=12) Density=Current Pop=(MK,readradii) iop(6/33=2) iop(6/42=6)

loop2.holoCaM.run22.water1 

   -2  1 
   C     68.14000000    46.61000000     2.68000000
   C     66.62000000    46.58000000     2.64000000
   O     66.06000000    46.12000000     3.64000000
   H     68.48800000    47.62600000     2.49300000
   H     68.48500000    46.28400000     3.66100000
   H     68.53700000    45.94400000     1.91400000
   N     65.97000000    47.00000000     1.55000000
   C     64.58000000    46.64000000     1.35000000
   C     64.43000000    45.13000000     1.31000000
   O     65.26000000    44.38000000     0.79000000
   C     64.04000000    47.28000000     0.07000000
   C     62.61000000    46.94000000    -0.33000000
   O     61.75000000    46.90000000     0.57000000
   O     62.36000000    46.81000000    -1.55000000
   H     66.45000000    47.46000000     0.79000000
   H     64.00000000    46.98000000     2.21000000
   H     64.64000000    46.92000000    -0.77000000
   H     64.18000000    48.36000000     0.09000000
   N     63.40000000    44.67000000     2.02000000
   C     63.27000000    43.28000000     2.41000000
   C     61.99000000    42.62000000     1.92000000
   O     62.01000000    41.40000000     1.76000000
   C     63.38000000    43.23000000     3.93000000
   H     62.76000000    45.31000000     2.46000000
   H     64.16000000    42.75000000     2.09000000
   H     64.14000000    43.99000000     4.10000000
   H     62.46000000    43.54000000     4.43000000
   H     63.56000000    42.25000000     4.39000000
   N     60.94000000    43.40000000     1.65000000
   C     59.78000000    42.93000000     0.92000000
   C     59.74000000    43.25000000    -0.56000000
   O     58.90000000    42.65000000    -1.23000000
   C     58.57000000    43.38000000     1.73000000
   C     58.48000000    44.89000000     1.94000000
   O     59.03000000    45.68000000     1.15000000
   O     57.86000000    45.32000000     2.93000000
   H     61.04000000    44.38000000     1.88000000
   H     59.64000000    41.85000000     0.92000000
   H     58.47000000    42.90000000     2.70000000
   H     57.71000000    43.11000000     1.12000000
   N     60.58000000    44.14000000    -1.09000000
   C     61.03000000    44.17000000    -2.47000000
   C     60.18000000    45.19000000    -3.22000000
   O     60.26000000    45.28000000    -4.44000000
   H     61.13000000    44.65000000    -0.41000000
   H     60.81000000    43.21000000    -2.93000000
   H     62.10000000    44.36000000    -2.51000000
   N     59.51000000    46.11000000    -2.53000000
   C     58.77000000    47.19000000    -3.16000000
   C     59.53000000    48.35000000    -3.78000000
   O     59.05000000    48.99000000    -4.71000000
   C     57.62000000    47.66000000    -2.27000000
   C     57.91000000    48.00000000    -0.82000000
   N     56.89000000    48.08000000     0.04000000
   O     59.03000000    48.22000000    -0.35000000
   H     59.69000000    46.18000000    -1.54000000
   H     58.29000000    46.77000000    -4.05000000
   H     56.91000000    46.84000000    -2.24000000
   H     57.11000000    48.49000000    -2.77000000
   H     55.97000000    47.86000000    -0.33000000
   H     57.05000000    48.54000000     0.92000000
   N     60.75000000    48.54000000    -3.26000000
   C     61.54000000    49.65000000    -3.74000000
   C     61.71000000    50.76000000    -2.71000000
   O     62.25000000    51.83000000    -3.01000000
   H     61.12000000    47.84000000    -2.63000000
   H     61.04000000    50.19000000    -4.54000000
   H     62.50000000    49.27000000    -4.10000000
   N     61.18000000    50.67000000    -1.49000000
   C     61.26000000    51.70000000    -0.48000000
   C     61.67000000    51.18000000     0.89000000
   O     61.33000000    50.07000000     1.29000000
   C     59.99000000    52.54000000    -0.34000000
   C     59.88000000    53.63000000    -1.40000000
   O     58.78000000    51.81000000    -0.39000000
   H     60.55000000    49.91000000    -1.26000000
   H     62.08000000    52.35000000    -0.79000000
   H     59.99000000    52.91000000     0.69000000
   H     58.50000000    51.66000000    -1.29000000
   H     58.94000000    54.18000000    -1.35000000
   H     60.57000000    54.41000000    -1.08000000
   H     60.15000000    53.18000000    -2.35000000
   N     62.38000000    52.04000000     1.62000000
   C     62.85000000    51.61000000     2.93000000
   C     61.79000000    51.96000000     3.96000000
   O     61.54000000    53.11000000     4.30000000
   C     64.19000000    52.24000000     3.28000000
   C     65.27000000    51.94000000     2.23000000
   C     64.77000000    51.96000000     4.66000000
   C     66.57000000    52.65000000     2.59000000
   H     62.47000000    52.99000000     1.30000000
   H     62.85000000    50.53000000     3.06000000
   H     64.10000000    53.32000000     3.18000000
   H     64.94000000    52.18000000     1.22000000
   H     65.56000000    50.90000000     2.30000000
   H     64.01000000    52.22000000     5.40000000
   H     65.06000000    50.91000000     4.72000000
   H     65.50000000    52.71000000     4.97000000
   H     67.12000000    52.22000000     3.43000000
   H     67.22000000    52.68000000     1.71000000
   H     66.45000000    53.70000000     2.82000000
   N     61.27000000    50.92000000     4.63000000
   C     60.61000000    51.03000000     5.92000000
   C     61.56000000    51.04000000     7.11000000
   O     62.70000000    50.62000000     6.92000000
   C     59.63000000    49.87000000     6.11000000
   C     58.76000000    49.56000000     4.90000000
   O     58.85000000    48.45000000     4.32000000
   O     58.07000000    50.47000000     4.39000000
   H     61.42000000    49.97000000     4.34000000
   H     59.98000000    51.91000000     5.93000000
   H     58.95000000    50.20000000     6.89000000
   H     60.12000000    48.95000000     6.42000000
   N     61.21000000    51.45000000     8.33000000
   C     62.20000000    51.61000000     9.37000000
   C     62.99000000    50.40000000     9.84000000
   O     64.21000000    50.48000000     9.97000000
   C     61.76000000    52.61000000    10.43000000
   C     62.64000000    52.87000000    11.64000000
   C     63.66000000    53.82000000    11.66000000
   C     62.34000000    52.18000000    12.82000000
   C     64.34000000    54.07000000    12.86000000
   C     63.12000000    52.27000000    13.97000000
   C     64.06000000    53.30000000    14.00000000
   H     60.26000000    51.78000000     8.44000000
   H     62.95000000    52.21000000     8.85000000
   H     60.85000000    52.19000000    10.85000000
   H     61.54000000    53.57000000     9.97000000
   H     63.92000000    54.38000000    10.77000000
   H     61.51000000    51.49000000    12.84000000
   H     65.08000000    54.83000000    13.05000000
   H     62.80000000    51.61000000    14.77000000
   H     64.63000000    53.54000000    14.89000000
   N     62.38000000    49.22000000     9.99000000
   C     63.09000000    48.00000000    10.31000000
   C     64.09000000    47.67000000     9.21000000
   O     65.05000000    46.99000000     9.55000000
   C     62.09000000    46.87000000    10.55000000
   C     60.81000000    47.65000000    10.86000000
   C     60.96000000    48.93000000    10.06000000
   H     63.55000000    48.29000000    11.26000000
   H     61.92000000    46.20000000     9.71000000
   H     62.40000000    46.24000000    11.39000000
   H     59.88000000    47.11000000    10.70000000
   H     60.90000000    47.91000000    11.92000000
   H     60.63000000    48.79000000     9.03000000
   H     60.51000000    49.76000000    10.61000000
   N     63.87000000    48.15000000     7.98000000
   C     64.80000000    48.06000000     6.87000000
   C     66.00000000    48.99000000     6.98000000
   O     67.11000000    48.66000000     6.56000000
   C     64.06000000    48.12000000     5.54000000
   C     63.08000000    46.98000000     5.34000000
   C     62.23000000    47.14000000     4.08000000
   O     61.97000000    48.26000000     3.60000000
   O     61.58000000    46.19000000     3.60000000
   H     63.13000000    48.80000000     7.77000000
   H     65.17000000    47.03000000     6.78000000
   H     64.80000000    47.92000000     4.75000000
   H     63.47000000    49.03000000     5.43000000
   H     62.53000000    46.81000000     6.27000000
   H     63.70000000    46.09000000     5.24000000
   N     65.86000000    50.21000000     7.50000000
   C     66.90000000    51.15000000     7.88000000
   H     67.76700000    51.01300000     7.23300000
   H     66.52600000    52.16800000     7.77500000
   H     67.18900000    50.97300000     8.91600000
   H     64.92000000    50.54000000     7.68000000
  Ca     59.94000000    47.87000000     1.96000000
   O     58.36000000    49.82000000     1.89000000
   H     58.25000000    50.11000000     2.80000000
   H     58.35000000    50.63000000     1.39000000

Ca 1.00



