%chk=loop4.apoCaM-CA-Ng.Init293.run69.water5.chk
%nprocshared=20
%mem=10GB
%nosave
#b3lyp/svp scf=(tight,noincore,xqc) Test 
#IOP(5/87=12) Density=Current Pop=(MK,readradii) iop(6/33=2) iop(6/42=6)

loop4.apoCaM-CA-Ng.Init293.run69.water5 

   -3  1 
   C     60.22000000    58.38000000    52.60000000
   C     59.05000000    57.44000000    52.36000000
   O     58.35000000    57.53000000    51.36000000
   H     61.05900000    58.08400000    51.97000000
   H     59.92400000    59.40000000    52.35400000
   H     60.51800000    58.33000000    53.64700000
   N     59.02000000    56.42000000    53.22000000
   C     58.26000000    55.19000000    53.11000000
   C     58.42000000    54.42000000    51.81000000
   O     57.84000000    53.34000000    51.74000000
   C     56.84000000    55.33000000    53.66000000
   C     56.03000000    56.49000000    53.10000000
   O     55.75000000    56.55000000    51.88000000
   O     55.39000000    57.27000000    53.83000000
   H     59.67000000    56.43000000    53.99000000
   H     58.75000000    54.51000000    53.80000000
   H     56.96000000    55.43000000    54.74000000
   H     56.26000000    54.42000000    53.51000000
   N     59.13000000    54.92000000    50.79000000
   C     59.05000000    54.34000000    49.46000000
   C     57.68000000    54.64000000    48.87000000
   O     57.05000000    55.67000000    49.10000000
   C     60.07000000    54.85000000    48.45000000
   C     61.49000000    54.45000000    48.83000000
   C     60.03000000    56.37000000    48.31000000
   C     61.71000000    53.00000000    49.25000000
   H     59.51000000    55.84000000    50.96000000
   H     59.08000000    53.26000000    49.60000000
   H     59.83000000    54.42000000    47.47000000
   H     61.94000000    55.02000000    49.65000000
   H     62.17000000    54.69000000    48.02000000
   H     60.91000000    56.70000000    47.75000000
   H     59.07000000    56.63000000    47.86000000
   H     60.24000000    56.84000000    49.27000000
   H     62.78000000    52.86000000    49.10000000
   H     61.61000000    52.81000000    50.32000000
   H     61.29000000    52.27000000    48.55000000
   N     57.24000000    53.81000000    47.92000000
   C     56.15000000    54.16000000    47.04000000
   C     54.82000000    53.92000000    47.75000000
   O     54.71000000    53.02000000    48.59000000
   C     56.23000000    53.42000000    45.71000000
   C     56.24000000    51.90000000    45.80000000
   O     56.78000000    51.30000000    46.76000000
   O     55.78000000    51.33000000    44.79000000
   H     57.61000000    52.87000000    47.87000000
   H     56.14000000    55.24000000    46.91000000
   H     57.10000000    53.85000000    45.21000000
   H     55.36000000    53.79000000    45.18000000
   N     53.79000000    54.72000000    47.48000000
   C     53.58000000    55.56000000    46.32000000
   C     52.42000000    56.54000000    46.47000000
   O     51.92000000    56.70000000    47.58000000
   H     52.97000000    54.56000000    48.04000000
   H     53.32000000    54.85000000    45.54000000
   H     54.49000000    56.16000000    46.17000000
   N     52.12000000    57.31000000    45.43000000
   C     52.78000000    57.40000000    44.15000000
   C     54.22000000    57.89000000    44.18000000
   O     54.46000000    58.93000000    44.79000000
   C     51.99000000    58.30000000    43.21000000
   C     52.63000000    58.46000000    41.84000000
   O     53.14000000    59.55000000    41.48000000
   O     52.50000000    57.51000000    41.05000000
   H     51.42000000    58.04000000    45.49000000
   H     52.66000000    56.42000000    43.69000000
   H     52.00000000    59.36000000    43.48000000
   H     50.97000000    57.94000000    43.08000000
   N     55.16000000    57.32000000    43.42000000
   C     55.22000000    56.05000000    42.72000000
   C     56.48000000    55.77000000    41.93000000
   O     56.96000000    54.64000000    41.82000000
   H     56.02000000    57.84000000    43.58000000
   H     54.36000000    55.95000000    42.06000000
   H     55.11000000    55.29000000    43.50000000
   N     57.14000000    56.84000000    41.49000000
   C     58.33000000    56.83000000    40.67000000
   C     59.66000000    56.45000000    41.31000000
   O     60.75000000    56.66000000    40.78000000
   C     58.43000000    58.21000000    40.01000000
   C     57.30000000    58.62000000    39.06000000
   C     57.47000000    59.94000000    38.32000000
   N     57.07000000    61.04000000    38.97000000
   O     57.96000000    60.04000000    37.20000000
   H     56.72000000    57.69000000    41.83000000
   H     58.15000000    56.05000000    39.93000000
   H     59.28000000    58.28000000    39.33000000
   H     58.43000000    58.96000000    40.80000000
   H     56.37000000    58.67000000    39.63000000
   H     57.23000000    57.91000000    38.24000000
   H     56.68000000    60.91000000    39.89000000
   H     57.19000000    61.92000000    38.50000000
   N     59.59000000    55.85000000    42.50000000
   C     60.76000000    55.32000000    43.16000000
   C     61.40000000    56.51000000    43.86000000
   O     60.76000000    57.37000000    44.46000000
   C     60.47000000    54.21000000    44.17000000
   C     61.71000000    53.76000000    44.93000000
   C     59.86000000    52.95000000    43.55000000
   H     58.69000000    55.75000000    42.96000000
   H     61.40000000    54.97000000    42.36000000
   H     59.89000000    54.55000000    45.03000000
   H     61.45000000    52.84000000    45.46000000
   H     62.60000000    53.56000000    44.34000000
   H     62.01000000    54.48000000    45.69000000
   H     60.63000000    52.52000000    42.91000000
   H     59.65000000    52.27000000    44.37000000
   H     58.93000000    53.35000000    43.15000000
   N     62.73000000    56.60000000    43.76000000
   C     63.45000000    57.74000000    44.29000000
   C     63.23000000    58.99000000    43.46000000
   O     63.61000000    60.10000000    43.82000000
   C     64.93000000    57.36000000    44.42000000
   C     65.70000000    58.53000000    45.01000000
   N     66.74000000    59.01000000    44.31000000
   O     65.46000000    58.99000000    46.12000000
   H     63.19000000    55.79000000    43.36000000
   H     63.19000000    57.98000000    45.32000000
   H     65.38000000    56.96000000    43.51000000
   H     64.94000000    56.60000000    45.20000000
   H     66.79000000    58.75000000    43.34000000
   H     67.32000000    59.74000000    44.70000000
   N     62.68000000    58.93000000    42.24000000
   C     62.32000000    60.09000000    41.45000000
   C     61.09000000    60.83000000    41.93000000
   O     60.24000000    60.22000000    42.58000000
   C     62.22000000    59.73000000    39.97000000
   C     62.20000000    61.03000000    39.19000000
   C     63.34000000    61.84000000    39.07000000
   C     61.03000000    61.35000000    38.49000000
   C     63.32000000    62.95000000    38.21000000
   C     60.97000000    62.51000000    37.71000000
   C     62.12000000    63.32000000    37.58000000
   O     62.00000000    64.51000000    36.92000000
   H     62.42000000    58.03000000    41.86000000
   H     63.16000000    60.79000000    41.48000000
   H     61.35000000    59.12000000    39.71000000
   H     63.07000000    59.15000000    39.62000000
   H     64.28000000    61.69000000    39.58000000
   H     60.12000000    60.77000000    38.60000000
   H     64.18000000    63.60000000    38.19000000
   H     60.13000000    62.87000000    37.14000000
   H     62.76000000    65.09000000    36.96000000
   N     61.13000000    62.17000000    41.88000000
   C     60.19000000    63.12000000    42.42000000
   C     60.11000000    63.15000000    43.94000000
   O     59.82000000    64.19000000    44.52000000
   C     58.81000000    62.92000000    41.80000000
   C     57.92000000    64.11000000    42.12000000
   C     56.62000000    64.07000000    41.33000000
   O     56.40000000    64.86000000    40.39000000
   O     55.71000000    63.45000000    41.93000000
   H     61.90000000    62.56000000    41.35000000
   H     60.54000000    64.12000000    42.17000000
   H     58.24000000    62.09000000    42.22000000
   H     59.02000000    62.85000000    40.73000000
   H     58.41000000    65.03000000    41.80000000
   H     57.66000000    64.11000000    43.18000000
   N     60.54000000    62.05000000    44.57000000
   C     60.79000000    61.89000000    45.99000000
   C     62.17000000    62.51000000    46.21000000
   O     62.51000000    62.74000000    47.36000000
   C     60.95000000    60.42000000    46.35000000
   C     59.57000000    59.84000000    46.61000000
   C     58.98000000    60.07000000    48.00000000
   O     58.52000000    59.08000000    48.62000000
   O     58.84000000    61.21000000    48.48000000
   H     60.76000000    61.24000000    44.00000000
   H     60.08000000    62.46000000    46.59000000
   H     61.48000000    60.37000000    47.30000000
   H     61.35000000    59.85000000    45.51000000
   H     59.68000000    58.77000000    46.45000000
   H     58.76000000    60.14000000    45.94000000
   N     62.91000000    62.86000000    45.15000000
   C     63.85000000    63.96000000    45.20000000
   H     64.76100000    63.68300000    44.66900000
   H     63.40800000    64.83800000    44.72900000
   H     64.09000000    64.18700000    46.23900000
   H     62.73000000    62.55000000    44.21000000
  Ca     56.38000000    58.14000000    49.94000000
   O     54.23000000    56.85000000    49.41000000
   H     53.81000000    56.58000000    50.22000000
   H     53.50000000    56.96000000    48.79000000
   O     55.12000000    59.45000000    52.26000000
   H     55.12000000    58.67000000    52.81000000
   H     55.47000000    60.15000000    52.81000000
   O     54.10000000    59.64000000    49.47000000
   H     53.25000000    59.76000000    49.06000000
   H     54.06000000    60.18000000    50.26000000
   O     55.90000000    58.26000000    47.21000000
   H     56.43000000    57.73000000    46.62000000
   H     55.28000000    58.72000000    46.64000000
   O     57.35000000    60.46000000    50.71000000
   H     57.05000000    61.21000000    51.22000000
   H     57.84000000    60.84000000    49.98000000

Ca 1.00



