%chk=loop1.apoCaM-CA-Ng.Init293.run99.water5.chk
%nprocshared=20
%mem=10GB
%nosave
#b3lyp/svp scf=(tight,noincore,xqc) Test 
#IOP(5/87=12) Density=Current Pop=(MK,readradii) iop(6/33=2) iop(6/42=6)

loop1.apoCaM-CA-Ng.Init293.run99.water5 

   0  1 
   C     66.10000000   104.59000000    28.63000000
   C     65.12000000   105.75000000    28.56000000
   O     64.58000000   106.14000000    27.53000000
   H     67.01200000   104.91600000    29.13000000
   H     65.65300000   103.76900000    29.19000000
   H     66.33900000   104.25400000    27.62100000
   N     64.80000000   106.24000000    29.76000000
   C     63.77000000   107.24000000    30.00000000
   C     64.36000000   108.63000000    29.89000000
   O     63.69000000   109.66000000    29.84000000
   C     63.13000000   106.97000000    31.36000000
   C     64.11000000   107.21000000    32.50000000
   O     64.02000000   108.19000000    33.28000000
   O     64.93000000   106.29000000    32.64000000
   H     65.14000000   105.71000000    30.55000000
   H     63.01000000   107.25000000    29.21000000
   H     62.70000000   105.98000000    31.45000000
   H     62.28000000   107.65000000    31.48000000
   N     65.67000000   108.76000000    29.64000000
   C     66.42000000   109.99000000    29.56000000
   C     66.44000000   110.53000000    28.14000000
   O     66.37000000   109.76000000    27.18000000
   C     67.85000000   109.96000000    30.09000000
   C     67.98000000   109.28000000    31.45000000
   C     67.33000000   110.13000000    32.52000000
   C     67.38000000   109.47000000    33.90000000
   N     66.80000000   108.12000000    33.82000000
   H     66.18000000   107.89000000    29.60000000
   H     65.85000000   110.75000000    30.09000000
   H     68.32000000   110.95000000    30.08000000
   H     68.50000000   109.50000000    29.35000000
   H     69.00000000   109.19000000    31.82000000
   H     67.53000000   108.29000000    31.36000000
   H     66.25000000   110.11000000    32.35000000
   H     67.81000000   111.11000000    32.58000000
   H     66.98000000   110.06000000    34.73000000
   H     68.44000000   109.40000000    34.15000000
   H     65.81000000   108.05000000    33.65000000
   H     67.38000000   107.53000000    33.24000000
   H     67.01000000   107.72000000    34.72000000
   N     66.48000000   111.85000000    27.97000000
   C     66.41000000   112.93000000    28.94000000
   C     65.03000000   113.31000000    29.45000000
   O     64.91000000   113.85000000    30.55000000
   C     67.02000000   114.17000000    28.28000000
   C     68.53000000   114.11000000    28.07000000
   O     69.19000000   113.16000000    28.55000000
   O     69.13000000   114.89000000    27.31000000
   H     66.61000000   112.05000000    26.99000000
   H     67.03000000   112.80000000    29.82000000
   H     66.92000000   115.06000000    28.90000000
   H     66.48000000   114.34000000    27.35000000
   N     63.89000000   113.09000000    28.78000000
   C     63.56000000   112.12000000    27.76000000
   C     62.11000000   112.05000000    27.31000000
   O     61.36000000   113.02000000    27.31000000
   H     63.11000000   113.51000000    29.26000000
   H     63.93000000   111.11000000    27.98000000
   H     64.10000000   112.33000000    26.84000000
   N     61.57000000   110.97000000    26.75000000
   C     62.25000000   109.71000000    26.50000000
   C     61.32000000   108.51000000    26.61000000
   O     60.15000000   108.47000000    26.24000000
   C     62.78000000   109.65000000    25.07000000
   C     63.54000000   110.89000000    24.61000000
   O     64.78000000   110.82000000    24.58000000
   O     63.00000000   111.88000000    24.08000000
   H     60.57000000   111.04000000    26.63000000
   H     63.10000000   109.57000000    27.16000000
   H     61.91000000   109.51000000    24.43000000
   H     63.31000000   108.73000000    24.84000000
   N     61.87000000   107.39000000    27.10000000
   C     61.31000000   106.06000000    27.13000000
   C     61.44000000   105.32000000    25.80000000
   O     61.89000000   104.18000000    25.85000000
   H     62.88000000   107.39000000    27.20000000
   H     60.24000000   106.10000000    27.29000000
   H     61.75000000   105.59000000    28.01000000
   N     61.18000000   105.93000000    24.64000000
   C     61.53000000   105.33000000    23.37000000
   C     63.03000000   105.31000000    23.12000000
   O     63.72000000   106.21000000    23.61000000
   C     60.95000000   106.14000000    22.21000000
   C     59.52000000   106.65000000    22.31000000
   O     60.93000000   105.31000000    21.07000000
   H     60.90000000   106.90000000    24.71000000
   H     61.12000000   104.33000000    23.25000000
   H     61.53000000   107.05000000    22.08000000
   H     60.55000000   105.88000000    20.40000000
   H     58.79000000   105.84000000    22.15000000
   H     59.39000000   107.12000000    23.29000000
   H     59.32000000   107.39000000    21.54000000
   N     63.56000000   104.33000000    22.38000000
   C     64.97000000   104.04000000    22.19000000
   C     65.19000000   103.53000000    20.77000000
   O     64.77000000   102.44000000    20.40000000
   C     65.46000000   103.20000000    23.37000000
   C     66.86000000   102.61000000    23.28000000
   C     64.60000000   101.98000000    23.66000000
   C     67.87000000   103.61000000    22.72000000
   H     62.91000000   103.62000000    22.09000000
   H     65.48000000   105.00000000    22.21000000
   H     65.36000000   103.90000000    24.20000000
   H     66.91000000   101.73000000    22.62000000
   H     67.12000000   102.26000000    24.28000000
   H     64.42000000   101.46000000    22.72000000
   H     64.98000000   101.42000000    24.51000000
   H     63.66000000   102.44000000    23.96000000
   H     68.86000000   103.16000000    22.79000000
   H     67.68000000   103.79000000    21.66000000
   H     67.82000000   104.60000000    23.17000000
   N     65.60000000   104.45000000    19.89000000
   C     66.02000000   104.22000000    18.52000000
   C     67.54000000   104.19000000    18.44000000
   O     67.94000000   103.61000000    17.43000000
   C     65.36000000   105.21000000    17.58000000
   C     63.91000000   105.56000000    17.90000000
   O     65.48000000   104.76000000    16.25000000
   H     65.90000000   105.32000000    20.30000000
   H     65.74000000   103.21000000    18.21000000
   H     65.85000000   106.17000000    17.71000000
   H     64.96000000   103.96000000    16.17000000
   H     63.22000000   104.74000000    17.74000000
   H     63.83000000   105.90000000    18.93000000
   H     63.61000000   106.41000000    17.28000000
   N     68.34000000   104.70000000    19.38000000
   C     69.77000000   104.82000000    19.21000000
   C     70.23000000   105.78000000    18.12000000
   O     69.68000000   105.79000000    17.02000000
   C     70.39000000   103.44000000    18.99000000
   C     70.16000000   102.41000000    20.10000000
   O     71.79000000   103.57000000    18.94000000
   H     67.88000000   105.15000000    20.16000000
   H     70.22000000   105.17000000    20.13000000
   H     70.09000000   102.98000000    18.04000000
   H     72.05000000   102.89000000    18.31000000
   H     70.91000000   101.64000000    19.90000000
   H     70.45000000   102.84000000    21.06000000
   H     69.12000000   102.10000000    20.02000000
   N     71.33000000   106.50000000    18.37000000
   C     71.85000000   107.47000000    17.43000000
   C     72.12000000   108.88000000    17.92000000
   O     72.17000000   109.69000000    17.00000000
   C     73.03000000   106.86000000    16.67000000
   C     73.29000000   107.43000000    15.28000000
   C     74.37000000   106.57000000    14.62000000
   C     74.67000000   107.05000000    13.21000000
   N     75.23000000   108.41000000    13.15000000
   H     72.00000000   106.06000000    18.98000000
   H     71.10000000   107.64000000    16.65000000
   H     72.84000000   105.80000000    16.51000000
   H     73.93000000   107.03000000    17.26000000
   H     73.65000000   108.45000000    15.32000000
   H     72.38000000   107.28000000    14.69000000
   H     73.91000000   105.59000000    14.53000000
   H     75.27000000   106.51000000    15.23000000
   H     73.74000000   106.99000000    12.64000000
   H     75.44000000   106.37000000    12.85000000
   H     74.49000000   109.08000000    12.98000000
   H     75.69000000   108.69000000    14.01000000
   H     75.81000000   108.52000000    12.33000000
   N     72.29000000   109.25000000    19.19000000
   C     72.36000000   108.51000000    20.44000000
   C     73.28000000   107.30000000    20.41000000
   O     72.89000000   106.19000000    20.76000000
   C     70.98000000   108.32000000    21.07000000
   C     70.96000000   107.95000000    22.55000000
   C     69.66000000   108.40000000    23.19000000
   O     68.61000000   107.75000000    22.97000000
   O     69.51000000   109.49000000    23.78000000
   H     72.28000000   110.25000000    19.29000000
   H     72.86000000   109.19000000    21.13000000
   H     70.40000000   107.57000000    20.53000000
   H     70.38000000   109.21000000    20.87000000
   H     71.83000000   108.31000000    23.11000000
   H     71.04000000   106.87000000    22.50000000
   N     74.49000000   107.52000000    19.88000000
   C     75.46000000   106.45000000    19.80000000
   H     76.36700000   106.74200000    20.33000000
   H     75.04700000   105.55000000    20.25500000
   H     75.69900000   106.25300000    18.75500000
   H     74.86000000   108.43000000    19.67000000
  Ca     67.11000000   109.29800000    24.50000000
   O     65.29000000   108.44800000    22.55000000
   H     64.57000000   107.92800000    22.93000000
   H     64.87000000   109.02800000    21.93000000
   O     68.00000000   111.72800000    25.41000000
   H     67.47000000   112.41800000    24.99000000
   H     68.89000000   112.06800000    25.38000000
   O     68.69000000   108.21800000    26.49000000
   H     69.56000000   108.38800000    26.85000000
   H     68.23000000   107.72800000    27.18000000
   O     65.75000000   107.20800000    25.23000000
   H     65.08000000   106.85800000    24.64000000
   H     65.61000000   106.72800000    26.05000000
   O     67.50000000   110.99800000    22.47000000
   H     67.09000000   111.73800000    22.03000000
   H     68.41000000   110.99800000    22.16000000

Ca 1.00



