%chk=loop4.apoCaM-CA-Ng.Init293.run68.water4.chk
%nprocshared=20
%mem=10GB
%nosave
#b3lyp/svp scf=(tight,noincore,xqc) Test 
#IOP(5/87=12) Density=Current Pop=(MK,readradii) iop(6/33=2) iop(6/42=6)

loop4.apoCaM-CA-Ng.Init293.run68.water4 

   -3  1 
   C     61.10000000    54.13000000    54.98000000
   C     60.00000000    53.53000000    54.11000000
   O     59.34000000    54.22000000    53.33000000
   H     61.94600000    54.41100000    54.35300000
   H     60.71800000    55.01400000    55.49100000
   H     61.42300000    53.39400000    55.71700000
   N     59.66000000    52.26000000    54.36000000
   C     58.59000000    51.51000000    53.75000000
   C     58.37000000    51.49000000    52.24000000
   O     57.39000000    50.90000000    51.79000000
   C     57.27000000    51.68000000    54.49000000
   C     56.73000000    53.10000000    54.58000000
   O     56.59000000    53.73000000    53.50000000
   O     56.17000000    53.49000000    55.62000000
   H     60.07000000    51.77000000    55.14000000
   H     58.88000000    50.47000000    53.91000000
   H     57.25000000    51.25000000    55.49000000
   H     56.52000000    51.04000000    54.01000000
   N     59.31000000    51.80000000    51.35000000
   C     59.12000000    51.87000000    49.91000000
   C     58.00000000    52.79000000    49.45000000
   O     57.69000000    53.77000000    50.13000000
   C     60.47000000    52.20000000    49.28000000
   C     61.68000000    51.33000000    49.62000000
   C     60.82000000    53.66000000    49.52000000
   C     61.38000000    49.83000000    49.64000000
   H     60.08000000    52.28000000    51.79000000
   H     58.75000000    50.91000000    49.54000000
   H     60.30000000    52.08000000    48.21000000
   H     62.18000000    51.55000000    50.56000000
   H     62.42000000    51.49000000    48.83000000
   H     61.83000000    53.83000000    49.16000000
   H     60.17000000    54.27000000    48.89000000
   H     60.78000000    53.92000000    50.58000000
   H     60.84000000    49.51000000    48.74000000
   H     62.35000000    49.33000000    49.59000000
   H     60.73000000    49.63000000    50.49000000
   N     57.46000000    52.55000000    48.25000000
   C     56.40000000    53.37000000    47.69000000
   C     55.02000000    53.24000000    48.32000000
   O     54.75000000    52.26000000    49.02000000
   C     56.30000000    53.29000000    46.17000000
   C     55.72000000    52.04000000    45.52000000
   O     55.33000000    52.01000000    44.34000000
   O     55.65000000    50.99000000    46.20000000
   H     57.73000000    51.65000000    47.87000000
   H     56.69000000    54.41000000    47.82000000
   H     57.30000000    53.34000000    45.73000000
   H     55.75000000    54.12000000    45.73000000
   N     54.00000000    54.07000000    48.12000000
   C     54.13000000    55.42000000    47.60000000
   C     52.99000000    56.27000000    48.13000000
   O     52.37000000    55.94000000    49.14000000
   H     53.14000000    53.87000000    48.62000000
   H     54.19000000    55.40000000    46.51000000
   H     55.08000000    55.81000000    47.97000000
   N     52.85000000    57.51000000    47.66000000
   C     53.58000000    58.24000000    46.63000000
   C     55.09000000    58.28000000    46.81000000
   O     55.54000000    58.52000000    47.94000000
   C     53.00000000    59.65000000    46.69000000
   C     53.79000000    60.56000000    45.75000000
   O     54.63000000    61.35000000    46.22000000
   O     53.70000000    60.38000000    44.52000000
   H     52.18000000    58.08000000    48.15000000
   H     53.25000000    57.79000000    45.70000000
   H     53.11000000    60.06000000    47.69000000
   H     51.95000000    59.60000000    46.39000000
   N     55.88000000    58.09000000    45.76000000
   C     55.37000000    57.73000000    44.45000000
   C     56.46000000    57.35000000    43.47000000
   O     56.08000000    56.62000000    42.56000000
   H     56.86000000    58.35000000    45.73000000
   H     54.94000000    58.62000000    43.99000000
   H     54.60000000    56.96000000    44.43000000
   N     57.74000000    57.71000000    43.63000000
   C     58.84000000    57.46000000    42.73000000
   C     60.08000000    56.84000000    43.35000000
   O     61.19000000    57.36000000    43.45000000
   C     59.13000000    58.84000000    42.13000000
   C     58.20000000    59.13000000    40.96000000
   C     58.37000000    60.58000000    40.52000000
   N     57.65000000    61.48000000    41.19000000
   O     59.19000000    60.92000000    39.68000000
   H     57.97000000    58.35000000    44.38000000
   H     58.60000000    56.68000000    42.00000000
   H     60.13000000    58.70000000    41.73000000
   H     59.09000000    59.63000000    42.88000000
   H     57.15000000    59.09000000    41.26000000
   H     58.36000000    58.47000000    40.11000000
   H     57.10000000    61.05000000    41.92000000
   H     57.84000000    62.48000000    41.24000000
   N     59.84000000    55.67000000    43.94000000
   C     60.85000000    54.89000000    44.64000000
   C     61.40000000    55.65000000    45.84000000
   O     60.70000000    56.01000000    46.78000000
   C     60.31000000    53.50000000    44.96000000
   C     61.40000000    52.65000000    45.59000000
   C     59.79000000    52.79000000    43.71000000
   H     58.89000000    55.35000000    43.92000000
   H     61.65000000    54.69000000    43.92000000
   H     59.45000000    53.51000000    45.63000000
   H     61.71000000    53.11000000    46.53000000
   H     60.99000000    51.66000000    45.79000000
   H     62.21000000    52.49000000    44.88000000
   H     60.53000000    52.64000000    42.92000000
   H     59.50000000    51.76000000    43.86000000
   H     58.91000000    53.20000000    43.20000000
   N     62.72000000    55.85000000    45.81000000
   C     63.48000000    56.60000000    46.79000000
   C     63.30000000    58.11000000    46.68000000
   O     64.00000000    58.78000000    47.43000000
   C     64.94000000    56.15000000    46.78000000
   C     65.92000000    56.88000000    47.69000000
   N     66.88000000    57.55000000    47.05000000
   O     65.72000000    57.01000000    48.90000000
   H     63.20000000    55.58000000    44.97000000
   H     63.00000000    56.37000000    47.74000000
   H     65.27000000    56.13000000    45.74000000
   H     64.99000000    55.09000000    47.01000000
   H     66.97000000    57.36000000    46.07000000
   H     67.63000000    57.97000000    47.59000000
   N     62.52000000    58.67000000    45.75000000
   C     62.30000000    60.10000000    45.69000000
   C     61.54000000    60.67000000    46.88000000
   O     60.55000000    60.11000000    47.34000000
   C     61.52000000    60.33000000    44.40000000
   C     61.35000000    61.78000000    44.01000000
   C     62.53000000    62.49000000    43.76000000
   C     60.10000000    62.40000000    43.88000000
   C     62.39000000    63.83000000    43.38000000
   C     60.01000000    63.73000000    43.44000000
   C     61.16000000    64.49000000    43.17000000
   O     61.15000000    65.82000000    42.87000000
   H     62.18000000    58.04000000    45.05000000
   H     63.30000000    60.54000000    45.63000000
   H     60.54000000    59.87000000    44.53000000
   H     61.96000000    59.82000000    43.55000000
   H     63.52000000    62.07000000    43.88000000
   H     59.17000000    61.89000000    44.11000000
   H     63.30000000    64.39000000    43.23000000
   H     59.06000000    64.23000000    43.32000000
   H     62.02000000    66.14000000    42.64000000
   N     62.05000000    61.75000000    47.48000000
   C     61.52000000    62.47000000    48.62000000
   C     61.64000000    61.66000000    49.91000000
   O     61.34000000    62.19000000    50.97000000
   C     60.15000000    63.07000000    48.35000000
   C     59.79000000    64.24000000    49.26000000
   C     59.01000000    65.28000000    48.46000000
   O     57.79000000    65.03000000    48.34000000
   O     59.46000000    66.40000000    48.12000000
   H     62.89000000    62.18000000    47.12000000
   H     62.14000000    63.36000000    48.70000000
   H     59.42000000    62.30000000    48.58000000
   H     60.20000000    63.37000000    47.30000000
   H     60.70000000    64.71000000    49.61000000
   H     59.29000000    63.75000000    50.10000000
   N     62.19000000    60.44000000    49.84000000
   C     62.48000000    59.61000000    50.99000000
   C     63.82000000    59.98000000    51.60000000
   O     64.11000000    59.79000000    52.78000000
   C     62.47000000    58.13000000    50.61000000
   C     61.26000000    57.72000000    49.78000000
   C     59.95000000    57.74000000    50.55000000
   O     59.44000000    56.66000000    50.92000000
   O     59.52000000    58.86000000    50.89000000
   H     62.44000000    60.10000000    48.92000000
   H     61.67000000    59.86000000    51.68000000
   H     62.53000000    57.54000000    51.53000000
   H     63.39000000    57.95000000    50.05000000
   H     61.37000000    56.70000000    49.42000000
   H     61.16000000    58.32000000    48.88000000
   N     64.67000000    60.55000000    50.74000000
   C     65.84000000    61.32000000    51.14000000
   H     66.64500000    61.15500000    50.42400000
   H     65.58700000    62.38000000    51.16300000
   H     66.16400000    61.00100000    52.13100000
   H     64.44000000    60.75000000    49.78000000
  Ca     57.37000000    55.66000000    51.95000000
   O     56.92000000    56.79000000    54.47000000
   H     56.80000000    56.49000000    55.37000000
   H     56.86000000    57.74000000    54.52000000
   O     54.68000000    55.60000000    51.58000000
   H     53.88000000    56.03000000    51.26000000
   H     54.42000000    55.19000000    52.40000000
   O     56.69000000    56.59000000    49.47000000
   H     56.51000000    57.52000000    49.31000000
   H     57.38000000    56.36000000    48.85000000
   O     57.01000000    58.38000000    51.73000000
   H     57.77000000    58.76000000    51.29000000
   H     56.61000000    59.11000000    52.20000000

Ca 1.00



