%chk=loop2.holoCaM-CaMKII.run5.water2.chk
%nprocshared=20
%mem=10GB
%nosave
#b3lyp/svp scf=(tight,noincore,xqc) Test 
#IOP(5/87=12) Density=Current Pop=(MK,readradii) iop(6/33=2) iop(6/42=6)

loop2.holoCaM-CaMKII.run5.water2 

   -2  1 
   C     65.77000000    66.84000000    12.83000000
   C     66.66000000    67.90000000    12.20000000
   O     66.99000000    68.93000000    12.78000000
   H     64.81500000    66.80900000    12.30500000
   H     66.25600000    65.86700000    12.75700000
   H     65.60000000    67.08400000    13.87900000
   N     67.04000000    67.65000000    10.94000000
   C     68.21000000    68.27000000    10.34000000
   C     67.98000000    69.73000000     9.99000000
   O     67.00000000    70.06000000     9.32000000
   C     68.64000000    67.42000000     9.15000000
   C     69.96000000    67.87000000     8.55000000
   O     70.76000000    68.44000000     9.31000000
   O     70.21000000    67.61000000     7.35000000
   H     66.69000000    66.84000000    10.44000000
   H     68.97000000    68.24000000    11.12000000
   H     67.86000000    67.51000000     8.39000000
   H     68.72000000    66.36000000     9.39000000
   N     68.96000000    70.60000000    10.26000000
   C     69.03000000    72.01000000     9.93000000
   C     70.02000000    72.33000000     8.82000000
   O     70.11000000    73.51000000     8.48000000
   C     69.44000000    72.68000000    11.24000000
   H     69.73000000    70.24000000    10.81000000
   H     67.99000000    72.21000000     9.69000000
   H     69.51000000    73.76000000    11.11000000
   H     68.67000000    72.58000000    12.00000000
   H     70.35000000    72.20000000    11.59000000
   N     70.78000000    71.37000000     8.29000000
   C     71.99000000    71.71000000     7.57000000
   C     72.41000000    70.70000000     6.51000000
   O     73.14000000    71.13000000     5.62000000
   C     73.09000000    71.93000000     8.61000000
   C     73.43000000    70.68000000     9.40000000
   O     73.44000000    69.57000000     8.83000000
   O     73.45000000    70.65000000    10.65000000
   H     70.79000000    70.49000000     8.79000000
   H     71.93000000    72.64000000     7.01000000
   H     72.76000000    72.69000000     9.32000000
   H     73.98000000    72.18000000     8.03000000
   N     71.99000000    69.44000000     6.39000000
   C     72.30000000    68.52000000     5.31000000
   C     73.62000000    67.79000000     5.49000000
   O     74.10000000    67.10000000     4.59000000
   H     71.45000000    69.01000000     7.13000000
   H     72.23000000    69.04000000     4.35000000
   H     71.50000000    67.78000000     5.34000000
   N     74.31000000    68.02000000     6.61000000
   C     75.64000000    67.50000000     6.85000000
   C     75.75000000    65.98000000     6.95000000
   O     76.83000000    65.42000000     7.13000000
   C     76.34000000    68.17000000     8.03000000
   C     75.86000000    67.74000000     9.41000000
   N     76.61000000    68.25000000    10.39000000
   O     74.92000000    66.98000000     9.60000000
   H     73.94000000    68.75000000     7.21000000
   H     76.26000000    67.78000000     6.00000000
   H     76.19000000    69.25000000     7.96000000
   H     77.40000000    67.92000000     8.08000000
   H     77.32000000    68.92000000    10.13000000
   H     76.37000000    68.16000000    11.37000000
   N     74.65000000    65.23000000     6.85000000
   C     74.50000000    63.79000000     6.96000000
   C     74.41000000    63.24000000     8.38000000
   O     74.29000000    62.02000000     8.48000000
   H     73.80000000    65.70000000     6.59000000
   H     75.37000000    63.29000000     6.54000000
   H     73.63000000    63.48000000     6.37000000
   N     74.53000000    64.04000000     9.44000000
   C     74.61000000    63.56000000    10.81000000
   C     73.77000000    64.32000000    11.83000000
   O     73.59000000    65.53000000    11.72000000
   C     76.05000000    63.54000000    11.32000000
   C     77.00000000    62.57000000    10.62000000
   O     76.53000000    64.85000000    11.14000000
   H     74.49000000    65.03000000     9.25000000
   H     74.32000000    62.51000000    10.81000000
   H     76.10000000    63.27000000    12.38000000
   H     75.72000000    65.35000000    11.03000000
   H     76.48000000    61.62000000    10.45000000
   H     77.18000000    63.05000000     9.67000000
   H     77.93000000    62.49000000    11.17000000
   N     73.46000000    63.75000000    13.00000000
   C     72.89000000    64.44000000    14.14000000
   C     74.01000000    65.28000000    14.72000000
   O     75.05000000    64.73000000    15.09000000
   C     72.09000000    63.55000000    15.08000000
   C     70.72000000    63.43000000    14.42000000
   C     71.95000000    64.28000000    16.42000000
   C     69.66000000    62.55000000    15.08000000
   H     73.68000000    62.76000000    13.06000000
   H     72.22000000    65.23000000    13.81000000
   H     72.61000000    62.61000000    15.28000000
   H     70.85000000    63.23000000    13.36000000
   H     70.39000000    64.46000000    14.60000000
   H     71.60000000    65.31000000    16.33000000
   H     71.37000000    63.77000000    17.19000000
   H     72.96000000    64.38000000    16.82000000
   H     70.09000000    61.55000000    15.14000000
   H     69.35000000    62.94000000    16.05000000
   H     68.82000000    62.60000000    14.38000000
   N     73.83000000    66.59000000    14.91000000
   C     74.66000000    67.54000000    15.63000000
   C     74.29000000    67.65000000    17.10000000
   O     73.18000000    67.32000000    17.50000000
   C     74.69000000    68.88000000    14.90000000
   C     75.20000000    68.85000000    13.46000000
   O     74.36000000    68.46000000    12.63000000
   O     76.32000000    69.31000000    13.16000000
   H     73.03000000    66.99000000    14.44000000
   H     75.69000000    67.21000000    15.55000000
   H     75.25000000    69.57000000    15.53000000
   H     73.72000000    69.36000000    14.82000000
   N     75.13000000    68.21000000    17.98000000
   C     74.85000000    68.50000000    19.37000000
   C     73.63000000    69.39000000    19.55000000
   O     72.78000000    69.08000000    20.38000000
   C     76.05000000    68.91000000    20.22000000
   C     75.77000000    69.20000000    21.68000000
   C     75.82000000    70.47000000    22.27000000
   C     75.34000000    68.16000000    22.50000000
   C     75.60000000    70.64000000    23.65000000
   C     75.22000000    68.28000000    23.89000000
   C     75.38000000    69.54000000    24.48000000
   H     76.07000000    68.16000000    17.62000000
   H     74.64000000    67.49000000    19.71000000
   H     76.59000000    69.75000000    19.77000000
   H     76.83000000    68.15000000    20.16000000
   H     76.15000000    71.28000000    21.65000000
   H     75.04000000    67.22000000    22.06000000
   H     75.75000000    71.65000000    24.01000000
   H     74.96000000    67.50000000    24.59000000
   H     75.11000000    69.60000000    25.53000000
   N     73.48000000    70.45000000    18.74000000
   C     72.33000000    71.32000000    18.86000000
   C     70.99000000    70.81000000    18.33000000
   O     69.99000000    71.38000000    18.76000000
   C     72.61000000    72.63000000    18.12000000
   C     74.14000000    72.62000000    18.16000000
   C     74.47000000    71.15000000    17.94000000
   H     72.16000000    71.55000000    19.91000000
   H     72.11000000    72.61000000    17.15000000
   H     72.27000000    73.42000000    18.78000000
   H     74.59000000    73.20000000    17.36000000
   H     74.60000000    72.96000000    19.09000000
   H     74.19000000    70.92000000    16.91000000
   H     75.47000000    70.89000000    18.28000000
   N     70.95000000    69.86000000    17.39000000
   C     69.79000000    69.11000000    16.96000000
   C     69.30000000    68.15000000    18.03000000
   O     68.16000000    68.16000000    18.50000000
   C     70.14000000    68.40000000    15.65000000
   C     70.32000000    69.32000000    14.44000000
   C     70.88000000    68.58000000    13.23000000
   O     70.97000000    69.22000000    12.16000000
   O     71.25000000    67.39000000    13.21000000
   H     71.87000000    69.57000000    17.08000000
   H     69.07000000    69.90000000    16.75000000
   H     69.21000000    67.85000000    15.49000000
   H     70.99000000    67.73000000    15.72000000
   H     71.09000000    70.04000000    14.71000000
   H     69.40000000    69.86000000    14.24000000
   N     70.27000000    67.48000000    18.66000000
   C     70.01000000    66.62000000    19.80000000
   H     68.98100000    66.26300000    19.75800000
   H     70.69000000    65.76900000    19.77600000
   H     70.16200000    67.18200000    20.72200000
   H     71.21000000    67.47000000    18.28000000
  Ca     72.81000000    67.88000000    10.82000000
   O     70.37000000    65.82000000    11.46000000
   H     70.46000000    66.27000000    12.29000000
   H     69.46000000    65.50000000    11.45000000
   O     72.13000000    65.93000000     9.11000000
   H     71.36000000    65.49000000     9.47000000
   H     72.12000000    65.72000000     8.18000000

Ca 1.00



