%chk=loop4.apoCaM-CA-Ng.Init31.run37.water5.chk
%nprocshared=20
%mem=10GB
%nosave
#b3lyp/svp scf=(tight,noincore,xqc) Test 
#IOP(5/87=12) Density=Current Pop=(MK,readradii) iop(6/33=2) iop(6/42=6)

loop4.apoCaM-CA-Ng.Init31.run37.water5 

   -3  1 
   C     91.48000000    51.66000000    80.65000000
   C     92.62000000    51.73000000    81.66000000
   O     93.32000000    52.73000000    81.79000000
   H     90.65400000    52.28400000    80.99100000
   H     91.82900000    52.01800000    79.68200000
   H     91.14000000    50.62900000    80.55600000
   N     93.09000000    50.70000000    82.36000000
   C     92.59000000    49.35000000    82.57000000
   C     92.03000000    49.01000000    83.95000000
   O     91.39000000    47.97000000    84.12000000
   C     93.75000000    48.44000000    82.18000000
   C     94.32000000    48.77000000    80.81000000
   O     95.56000000    48.95000000    80.73000000
   O     93.59000000    48.69000000    79.80000000
   H     93.77000000    50.92000000    83.07000000
   H     91.80000000    49.16000000    81.85000000
   H     93.54000000    47.38000000    82.32000000
   H     94.53000000    48.69000000    82.89000000
   N     92.17000000    49.92000000    84.92000000
   C     91.45000000    49.86000000    86.18000000
   C     91.90000000    48.74000000    87.11000000
   O     91.05000000    48.27000000    87.86000000
   C     91.44000000    51.15000000    86.99000000
   C     90.64000000    51.25000000    88.29000000
   C     92.81000000    51.78000000    87.20000000
   C     89.17000000    50.87000000    88.14000000
   H     92.92000000    50.57000000    84.80000000
   H     90.42000000    49.58000000    85.98000000
   H     90.87000000    51.84000000    86.36000000
   H     90.63000000    52.27000000    88.68000000
   H     91.10000000    50.66000000    89.08000000
   H     93.22000000    51.94000000    86.20000000
   H     92.76000000    52.80000000    87.59000000
   H     93.47000000    51.15000000    87.80000000
   H     88.95000000    49.92000000    87.66000000
   H     88.74000000    50.73000000    89.14000000
   H     88.63000000    51.61000000    87.54000000
   N     93.11000000    48.18000000    87.02000000
   C     93.53000000    47.01000000    87.76000000
   C     94.30000000    46.11000000    86.80000000
   O     95.41000000    45.68000000    87.10000000
   C     94.18000000    47.34000000    89.10000000
   C     94.51000000    46.07000000    89.87000000
   O     93.80000000    45.05000000    89.88000000
   O     95.54000000    46.09000000    90.58000000
   H     93.76000000    48.51000000    86.33000000
   H     92.62000000    46.45000000    87.94000000
   H     93.47000000    47.94000000    89.67000000
   H     95.05000000    47.99000000    89.00000000
   N     93.83000000    45.87000000    85.57000000
   C     94.56000000    45.25000000    84.48000000
   C     95.97000000    45.81000000    84.31000000
   O     96.16000000    46.99000000    84.04000000
   H     92.88000000    46.12000000    85.35000000
   H     93.99000000    45.32000000    83.55000000
   H     94.60000000    44.18000000    84.71000000
   N     96.93000000    44.91000000    84.53000000
   C     98.35000000    45.18000000    84.60000000
   C     98.94000000    44.22000000    85.63000000
   O     98.43000000    43.12000000    85.81000000
   C     99.02000000    44.98000000    83.24000000
   C     98.82000000    43.66000000    82.52000000
   O     99.35000000    42.63000000    82.99000000
   O     98.13000000    43.68000000    81.48000000
   H     96.66000000    44.13000000    85.11000000
   H     98.52000000    46.21000000    84.92000000
   H    100.08000000    45.19000000    83.36000000
   H     98.54000000    45.77000000    82.66000000
   N    100.03000000    44.57000000    86.32000000
   C    100.68000000    45.86000000    86.28000000
   C    101.53000000    45.96000000    87.54000000
   O    101.09000000    45.65000000    88.64000000
   H    100.40000000    43.86000000    86.95000000
   H     99.98000000    46.69000000    86.32000000
   H    101.31000000    46.02000000    85.40000000
   N    102.70000000    46.60000000    87.46000000
   C    103.55000000    47.05000000    86.38000000
   C    102.95000000    48.22000000    85.61000000
   O    101.74000000    48.39000000    85.51000000
   C    104.14000000    45.91000000    85.56000000
   C    105.09000000    46.21000000    84.41000000
   C    106.48000000    46.70000000    84.78000000
   N    107.45000000    45.78000000    84.84000000
   O    106.75000000    47.87000000    85.04000000
   H    103.00000000    46.69000000    88.42000000
   H    104.42000000    47.43000000    86.92000000
   H    103.28000000    45.48000000    85.03000000
   H    104.63000000    45.19000000    86.22000000
   H    104.73000000    46.94000000    83.67000000
   H    105.25000000    45.30000000    83.83000000
   H    107.31000000    44.84000000    84.48000000
   H    108.39000000    46.15000000    84.74000000
   N    103.90000000    49.11000000    85.32000000
   C    103.74000000    50.42000000    84.72000000
   C    103.46000000    51.43000000    85.81000000
   O    104.30000000    51.72000000    86.67000000
   C    104.92000000    50.85000000    83.85000000
   C    104.89000000    52.31000000    83.40000000
   C    105.18000000    50.05000000    82.58000000
   H    104.83000000    48.72000000    85.40000000
   H    102.89000000    50.36000000    84.03000000
   H    105.84000000    50.82000000    84.43000000
   H    105.81000000    52.49000000    82.85000000
   H    104.12000000    52.49000000    82.65000000
   H    104.72000000    53.00000000    84.23000000
   H    105.36000000    49.04000000    82.96000000
   H    104.25000000    50.02000000    82.00000000
   H    106.01000000    50.54000000    82.08000000
   N    102.27000000    52.04000000    85.74000000
   C    101.75000000    53.10000000    86.58000000
   C    101.62000000    54.46000000    85.91000000
   O    101.30000000    55.40000000    86.63000000
   C    100.36000000    52.76000000    87.13000000
   C    100.40000000    51.62000000    88.14000000
   N     99.49000000    51.62000000    89.11000000
   O    101.30000000    50.80000000    88.24000000
   H    101.61000000    51.72000000    85.05000000
   H    102.44000000    53.09000000    87.42000000
   H     99.82000000    52.34000000    86.28000000
   H     99.83000000    53.62000000    87.53000000
   H     98.85000000    52.40000000    89.20000000
   H     99.57000000    50.92000000    89.84000000
   N    101.98000000    54.52000000    84.63000000
   C    102.04000000    55.77000000    83.90000000
   C    101.95000000    55.56000000    82.40000000
   O    102.61000000    54.64000000    81.93000000
   C    103.21000000    56.66000000    84.29000000
   C    103.60000000    57.85000000    83.45000000
   C    104.83000000    57.92000000    82.78000000
   C    102.71000000    58.92000000    83.28000000
   C    105.16000000    58.98000000    81.92000000
   C    103.07000000    60.05000000    82.55000000
   C    104.36000000    60.13000000    81.98000000
   O    104.72000000    61.27000000    81.33000000
   H    102.36000000    53.68000000    84.22000000
   H    101.16000000    56.34000000    84.23000000
   H    104.10000000    56.03000000    84.33000000
   H    103.01000000    57.03000000    85.30000000
   H    105.51000000    57.08000000    82.80000000
   H    101.81000000    58.90000000    83.89000000
   H    106.05000000    58.99000000    81.32000000
   H    102.48000000    60.95000000    82.46000000
   H    105.52000000    61.11000000    80.82000000
   N    101.20000000    56.39000000    81.66000000
   C    101.14000000    56.47000000    80.22000000
   C     99.68000000    56.51000000    79.80000000
   O     98.97000000    57.51000000    79.91000000
   C    101.86000000    57.72000000    79.71000000
   C    103.37000000    57.69000000    79.53000000
   C    103.82000000    56.61000000    78.55000000
   O    104.03000000    56.97000000    77.37000000
   O    104.04000000    55.44000000    78.93000000
   H    100.73000000    57.15000000    82.12000000
   H    101.62000000    55.60000000    79.76000000
   H    101.60000000    58.45000000    80.48000000
   H    101.43000000    58.03000000    78.76000000
   H    103.88000000    57.50000000    80.47000000
   H    103.64000000    58.69000000    79.18000000
   N     99.20000000    55.34000000    79.38000000
   C     97.79000000    55.03000000    79.27000000
   C     96.98000000    54.66000000    80.50000000
   O     95.75000000    54.54000000    80.50000000
   C     97.64000000    53.97000000    78.18000000
   C     96.47000000    54.12000000    77.21000000
   C     96.31000000    52.86000000    76.38000000
   O     96.81000000    52.81000000    75.23000000
   O     95.68000000    51.85000000    76.77000000
   H     99.80000000    54.52000000    79.35000000
   H     97.30000000    55.91000000    78.85000000
   H     97.59000000    53.05000000    78.78000000
   H     98.56000000    53.83000000    77.63000000
   H     96.61000000    54.99000000    76.57000000
   H     95.57000000    54.39000000    77.76000000
   N     97.66000000    54.52000000    81.64000000
   C     97.01000000    54.16000000    82.88000000
   H     96.00300000    53.79800000    82.67000000
   H     97.58100000    53.37500000    83.37600000
   H     96.95400000    55.03400000    83.52900000
   H     98.66000000    54.40000000    81.58000000
  Ca     95.44000000    49.59000000    78.06000000
   O     96.08000000    49.25000000    75.42000000
   H     96.53000000    48.65000000    74.82000000
   H     95.63000000    49.87000000    74.84000000
   O     94.55000000    47.02000000    77.52000000
   H     94.33000000    46.46000000    78.26000000
   H     93.71000000    47.19000000    77.09000000
   O     97.85000000    50.43000000    79.10000000
   H     98.40000000    50.73000000    78.38000000
   H     98.46000000    50.22000000    79.80000000
   O     97.47000000    47.70000000    77.90000000
   H     98.03000000    47.50000000    78.66000000
   H     97.25000000    46.84000000    77.54000000
   O     95.13000000    51.87000000    79.62000000
   H     94.77000000    52.70000000    79.95000000
   H     95.93000000    51.74000000    80.13000000

Ca 1.00



