%chk=loop3.holoCaM.run18.water2.chk
%nprocshared=20
%mem=10GB
%nosave
#b3lyp/svp scf=(tight,noincore,xqc) Test 
#IOP(5/87=12) Density=Current Pop=(MK,readradii) iop(6/33=2) iop(6/42=6)

loop3.holoCaM.run18.water2 

   0  1 
   C     60.57000000    48.76000000    26.94000000
   C     61.62000000    47.67000000    26.72000000
   O     61.43000000    46.66000000    27.39000000
   H     59.66600000    48.31400000    27.35400000
   H     60.95800000    49.50500000    27.63500000
   H     60.33600000    49.23700000    25.98800000
   N     62.71000000    47.93000000    26.01000000
   C     63.78000000    46.95000000    26.03000000
   C     64.56000000    47.23000000    27.31000000
   O     65.24000000    48.24000000    27.47000000
   C     64.58000000    47.18000000    24.76000000
   C     65.67000000    46.14000000    24.57000000
   O     65.97000000    45.31000000    25.45000000
   O     66.31000000    46.17000000    23.49000000
   H     62.91000000    48.81000000    25.55000000
   H     63.45000000    45.91000000    26.00000000
   H     65.01000000    48.18000000    24.88000000
   H     63.91000000    47.15000000    23.90000000
   N     64.47000000    46.27000000    28.23000000
   C     64.85000000    46.44000000    29.62000000
   C     66.22000000    45.87000000    29.98000000
   O     66.54000000    45.77000000    31.16000000
   C     63.69000000    46.05000000    30.53000000
   C     62.68000000    47.19000000    30.39000000
   C     61.32000000    46.86000000    31.01000000
   C     60.25000000    47.94000000    31.07000000
   N     60.32000000    48.89000000    32.19000000
   H     63.90000000    45.47000000    27.99000000
   H     64.97000000    47.52000000    29.71000000
   H     64.03000000    45.97000000    31.56000000
   H     63.19000000    45.18000000    30.10000000
   H     62.44000000    47.59000000    29.41000000
   H     63.03000000    47.98000000    31.06000000
   H     61.42000000    46.39000000    31.99000000
   H     60.91000000    46.05000000    30.41000000
   H     59.23000000    47.57000000    31.18000000
   H     60.19000000    48.50000000    30.14000000
   H     60.07000000    48.45000000    33.06000000
   H     61.24000000    49.28000000    32.29000000
   H     59.67000000    49.63000000    31.94000000
   N     67.03000000    45.48000000    29.00000000
   C     68.42000000    45.10000000    29.18000000
   C     69.08000000    45.52000000    27.87000000
   O     70.19000000    45.14000000    27.51000000
   C     68.47000000    43.60000000    29.44000000
   C     67.94000000    42.72000000    28.31000000
   O     67.32000000    43.18000000    27.32000000
   O     68.15000000    41.49000000    28.33000000
   H     66.51000000    45.26000000    28.16000000
   H     68.82000000    45.68000000    30.00000000
   H     67.87000000    43.32000000    30.30000000
   H     69.47000000    43.32000000    29.76000000
   N     68.31000000    46.21000000    27.03000000
   C     68.91000000    47.05000000    26.00000000
   C     69.52000000    46.41000000    24.76000000
   O     70.42000000    46.99000000    24.16000000
   H     67.41000000    46.54000000    27.34000000
   H     69.77000000    47.58000000    26.41000000
   H     68.20000000    47.83000000    25.77000000
   N     69.19000000    45.14000000    24.50000000
   C     69.90000000    44.35000000    23.51000000
   C     69.58000000    44.60000000    22.05000000
   O     70.20000000    44.08000000    21.12000000
   C     69.88000000    42.88000000    23.92000000
   C     68.64000000    42.15000000    23.44000000
   N     68.73000000    40.88000000    23.04000000
   O     67.55000000    42.71000000    23.51000000
   H     68.47000000    44.74000000    25.08000000
   H     70.94000000    44.66000000    23.65000000
   H     70.08000000    42.66000000    24.97000000
   H     70.82000000    42.47000000    23.54000000
   H     69.52000000    40.31000000    23.29000000
   H     67.84000000    40.46000000    22.79000000
   N     68.48000000    45.32000000    21.80000000
   C     67.92000000    45.59000000    20.50000000
   C     66.77000000    44.69000000    20.06000000
   O     66.37000000    44.74000000    18.90000000
   H     67.98000000    45.67000000    22.61000000
   H     68.72000000    45.43000000    19.78000000
   H     67.70000000    46.62000000    20.19000000
   N     66.25000000    43.83000000    20.94000000
   C     65.16000000    42.89000000    20.76000000
   C     64.16000000    43.02000000    21.90000000
   O     64.44000000    43.54000000    22.98000000
   C     65.81000000    41.52000000    20.62000000
   C     66.82000000    41.32000000    19.51000000
   C     68.17000000    41.68000000    19.58000000
   C     66.34000000    40.64000000    18.38000000
   C     69.03000000    41.42000000    18.51000000
   C     67.22000000    40.35000000    17.33000000
   C     68.56000000    40.77000000    17.35000000
   O     69.51000000    40.55000000    16.40000000
   H     66.75000000    43.77000000    21.82000000
   H     64.56000000    43.16000000    19.89000000
   H     65.01000000    40.78000000    20.55000000
   H     66.22000000    41.29000000    21.60000000
   H     68.64000000    42.25000000    20.37000000
   H     65.35000000    40.26000000    18.20000000
   H     70.06000000    41.74000000    18.51000000
   H     66.92000000    39.70000000    16.51000000
   H     69.25000000    39.92000000    15.72000000
   N     63.00000000    42.37000000    21.73000000
   C     62.03000000    42.31000000    22.81000000
   C     61.69000000    40.87000000    23.18000000
   O     61.66000000    40.00000000    22.32000000
   C     60.85000000    43.20000000    22.46000000
   C     61.13000000    44.70000000    22.40000000
   C     59.55000000    42.92000000    23.21000000
   C     61.43000000    45.42000000    23.71000000
   H     62.97000000    41.81000000    20.89000000
   H     62.59000000    42.72000000    23.65000000
   H     60.54000000    42.97000000    21.44000000
   H     60.33000000    45.23000000    21.88000000
   H     62.01000000    44.87000000    21.77000000
   H     59.67000000    43.06000000    24.29000000
   H     58.74000000    43.62000000    22.98000000
   H     59.24000000    41.88000000    23.13000000
   H     62.38000000    45.03000000    24.09000000
   H     61.45000000    46.50000000    23.56000000
   H     60.63000000    45.31000000    24.44000000
   N     61.41000000    40.68000000    24.47000000
   C     61.09000000    39.36000000    24.97000000
   C     59.75000000    39.35000000    25.68000000
   O     59.13000000    40.39000000    25.89000000
   C     62.21000000    38.89000000    25.90000000
   O     63.41000000    38.69000000    25.19000000
   H     61.57000000    41.43000000    25.13000000
   H     60.86000000    38.65000000    24.17000000
   H     61.92000000    37.95000000    26.37000000
   H     62.43000000    39.54000000    26.74000000
   H     63.89000000    38.08000000    25.75000000
   N     59.20000000    38.29000000    26.28000000
   C     57.90000000    38.28000000    26.91000000
   C     57.73000000    39.21000000    28.11000000
   O     56.71000000    39.87000000    28.21000000
   C     57.45000000    36.87000000    27.28000000
   H     59.66000000    37.40000000    26.15000000
   H     57.24000000    38.76000000    26.19000000
   H     56.38000000    36.78000000    27.50000000
   H     57.54000000    36.36000000    26.32000000
   H     58.06000000    36.38000000    28.04000000
   N     58.78000000    39.33000000    28.93000000
   C     58.76000000    40.18000000    30.10000000
   C     58.94000000    41.65000000    29.72000000
   O     58.78000000    42.51000000    30.57000000
   C     59.93000000    39.71000000    30.96000000
   H     59.63000000    38.89000000    28.61000000
   H     57.87000000    40.01000000    30.70000000
   H     59.99000000    40.46000000    31.75000000
   H     59.84000000    38.64000000    31.16000000
   H     60.91000000    39.70000000    30.47000000
   N     59.23000000    41.97000000    28.45000000
   C     59.35000000    43.32000000    27.94000000
   C     58.12000000    43.65000000    27.11000000
   O     57.64000000    44.78000000    27.19000000
   C     60.62000000    43.34000000    27.10000000
   C     61.91000000    43.06000000    27.87000000
   C     63.08000000    43.02000000    26.89000000
   O     64.06000000    43.71000000    27.25000000
   O     63.18000000    42.26000000    25.91000000
   H     59.21000000    41.21000000    27.80000000
   H     59.53000000    44.11000000    28.68000000
   H     60.58000000    44.29000000    26.58000000
   H     60.45000000    42.55000000    26.36000000
   H     61.89000000    42.12000000    28.42000000
   H     62.02000000    43.85000000    28.61000000
   N     57.59000000    42.64000000    26.42000000
   C     56.27000000    42.64000000    25.82000000
   H     55.60200000    43.26600000    26.41200000
   H     56.33100000    43.03300000    24.80500000
   H     55.88300000    41.62100000    25.79200000
   H     58.09000000    41.77000000    26.37000000
  Ca     65.61000000    42.79000000    25.32000000
   O     65.00000000    40.57000000    23.79000000
   H     65.57000000    39.97000000    23.31000000
   H     64.41000000    40.01000000    24.29000000
   O     66.41000000    40.60000000    26.70000000
   H     66.55000000    39.67000000    26.55000000
   H     67.14000000    40.87000000    27.26000000

Ca 1.00



