%chk=loop4.holoCaM-CaMKII.run23.water2.chk
%nprocshared=20
%mem=10GB
%nosave
#b3lyp/svp scf=(tight,noincore,xqc) Test 
#IOP(5/87=12) Density=Current Pop=(MK,readradii) iop(6/33=2) iop(6/42=6)

loop4.holoCaM-CaMKII.run23.water2 

   -3  1 
   C     74.93000000    52.38000000    34.85000000
   C     73.71000000    52.51000000    35.75000000
   O     73.37000000    53.64000000    36.09000000
   H     75.78100000    52.04100000    35.44000000
   H     74.72400000    51.65700000    34.06000000
   H     75.15900000    53.34900000    34.40600000
   N     73.15000000    51.50000000    36.42000000
   C     71.84000000    51.41000000    37.03000000
   C     71.98000000    51.95000000    38.44000000
   O     72.70000000    51.38000000    39.26000000
   C     71.27000000    50.00000000    37.00000000
   C     69.94000000    49.90000000    37.73000000
   O     69.31000000    50.97000000    37.89000000
   O     69.54000000    48.82000000    38.22000000
   H     73.59000000    50.60000000    36.36000000
   H     71.16000000    52.07000000    36.48000000
   H     72.05000000    49.34000000    37.38000000
   H     71.16000000    49.72000000    35.95000000
   N     71.18000000    52.94000000    38.84000000
   C     71.29000000    53.60000000    40.12000000
   C     70.69000000    52.76000000    41.24000000
   O     71.10000000    52.83000000    42.39000000
   C     70.74000000    55.03000000    40.05000000
   C     71.27000000    55.88000000    38.90000000
   C     70.84000000    55.70000000    41.42000000
   C     72.73000000    56.29000000    39.06000000
   H     70.49000000    53.20000000    38.15000000
   H     72.36000000    53.66000000    40.33000000
   H     69.67000000    55.06000000    39.86000000
   H     70.70000000    56.79000000    38.72000000
   H     71.08000000    55.44000000    37.92000000
   H     70.23000000    55.11000000    42.10000000
   H     71.85000000    55.63000000    41.83000000
   H     70.43000000    56.71000000    41.40000000
   H     73.27000000    55.60000000    39.71000000
   H     73.10000000    56.45000000    38.05000000
   H     72.90000000    57.24000000    39.58000000
   N     69.59000000    52.08000000    40.89000000
   C     68.49000000    51.79000000    41.80000000
   C     67.97000000    50.37000000    41.69000000
   O     67.01000000    50.12000000    42.42000000
   C     67.41000000    52.86000000    41.65000000
   C     67.09000000    53.22000000    40.21000000
   O     66.74000000    54.40000000    39.98000000
   O     67.07000000    52.34000000    39.32000000
   H     69.44000000    51.93000000    39.91000000
   H     68.95000000    51.91000000    42.78000000
   H     67.68000000    53.82000000    42.10000000
   H     66.46000000    52.54000000    42.09000000
   N     68.51000000    49.43000000    40.91000000
   C     68.36000000    48.01000000    41.12000000
   C     67.14000000    47.28000000    40.58000000
   O     66.79000000    46.22000000    41.08000000
   H     69.08000000    49.70000000    40.11000000
   H     68.32000000    47.78000000    42.19000000
   H     69.28000000    47.60000000    40.68000000
   N     66.49000000    47.95000000    39.62000000
   C     65.55000000    47.39000000    38.67000000
   C     66.22000000    46.58000000    37.57000000
   O     65.61000000    45.69000000    36.98000000
   C     64.65000000    48.52000000    38.16000000
   C     65.46000000    49.71000000    37.64000000
   O     66.46000000    49.51000000    36.92000000
   O     65.06000000    50.86000000    37.92000000
   H     67.07000000    48.70000000    39.29000000
   H     64.99000000    46.60000000    39.16000000
   H     63.95000000    48.81000000    38.93000000
   H     64.25000000    48.13000000    37.22000000
   N     67.52000000    46.72000000    37.33000000
   C     68.31000000    46.13000000    36.27000000
   C     68.08000000    46.75000000    34.90000000
   O     68.47000000    46.12000000    33.92000000
   H     68.01000000    47.51000000    37.72000000
   H     67.99000000    45.08000000    36.26000000
   H     69.37000000    46.17000000    36.50000000
   N     67.47000000    47.94000000    34.83000000
   C     67.35000000    48.67000000    33.58000000
   C     68.07000000    50.01000000    33.70000000
   O     68.29000000    50.54000000    34.78000000
   C     65.92000000    48.76000000    33.05000000
   C     65.26000000    47.40000000    32.86000000
   C     64.00000000    47.52000000    32.03000000
   N     62.85000000    47.09000000    32.56000000
   O     63.96000000    48.05000000    30.92000000
   H     67.21000000    48.38000000    35.70000000
   H     67.97000000    48.16000000    32.85000000
   H     65.98000000    49.28000000    32.09000000
   H     65.32000000    49.31000000    33.77000000
   H     64.96000000    47.05000000    33.85000000
   H     65.97000000    46.76000000    32.32000000
   H     62.81000000    46.59000000    33.44000000
   H     62.02000000    47.35000000    32.06000000
   N     68.36000000    50.58000000    32.53000000
   C     68.88000000    51.92000000    32.40000000
   C     67.95000000    52.84000000    31.62000000
   O     67.68000000    52.70000000    30.43000000
   C     70.29000000    51.76000000    31.83000000
   C     71.07000000    53.06000000    32.00000000
   C     71.10000000    50.72000000    32.60000000
   H     68.25000000    49.97000000    31.73000000
   H     69.09000000    52.32000000    33.39000000
   H     70.26000000    51.49000000    30.78000000
   H     70.50000000    53.96000000    31.76000000
   H     71.28000000    53.23000000    33.05000000
   H     72.07000000    53.04000000    31.56000000
   H     72.09000000    50.72000000    32.16000000
   H     71.26000000    51.02000000    33.63000000
   H     70.68000000    49.71000000    32.64000000
   N     67.48000000    53.89000000    32.31000000
   C     66.61000000    54.94000000    31.83000000
   C     67.49000000    55.93000000    31.09000000
   O     68.71000000    55.97000000    31.27000000
   C     65.90000000    55.56000000    33.03000000
   C     64.83000000    56.55000000    32.60000000
   N     63.90000000    56.16000000    31.71000000
   O     64.81000000    57.67000000    33.09000000
   H     67.92000000    54.08000000    33.20000000
   H     65.91000000    54.54000000    31.09000000
   H     66.53000000    56.02000000    33.79000000
   H     65.39000000    54.75000000    33.56000000
   H     63.93000000    55.24000000    31.30000000
   H     63.28000000    56.90000000    31.43000000
   N     66.86000000    56.77000000    30.27000000
   C     67.54000000    57.76000000    29.47000000
   C     68.26000000    58.77000000    30.36000000
   O     69.42000000    59.12000000    30.17000000
   C     66.55000000    58.50000000    28.58000000
   C     67.24000000    59.66000000    27.90000000
   C     68.15000000    59.34000000    26.89000000
   C     67.04000000    60.98000000    28.33000000
   C     68.81000000    60.38000000    26.21000000
   C     67.78000000    61.99000000    27.69000000
   C     68.68000000    61.71000000    26.64000000
   O     69.26000000    62.75000000    25.97000000
   H     65.86000000    56.65000000    30.16000000
   H     68.34000000    57.34000000    28.86000000
   H     65.76000000    58.83000000    29.26000000
   H     66.30000000    57.74000000    27.84000000
   H     68.40000000    58.32000000    26.67000000
   H     66.30000000    61.14000000    29.09000000
   H     69.37000000    60.19000000    25.31000000
   H     67.57000000    63.03000000    27.87000000
   H     68.72000000    63.48000000    26.29000000
   N     67.59000000    59.09000000    31.47000000
   C     68.08000000    59.87000000    32.59000000
   C     69.14000000    59.20000000    33.45000000
   O     69.77000000    59.83000000    34.30000000
   C     66.90000000    60.30000000    33.45000000
   C     67.07000000    61.45000000    34.44000000
   C     65.94000000    62.46000000    34.49000000
   O     64.78000000    62.25000000    34.91000000
   O     66.16000000    63.59000000    34.01000000
   H     66.79000000    58.49000000    31.61000000
   H     68.51000000    60.83000000    32.28000000
   H     66.52000000    59.44000000    34.00000000
   H     66.00000000    60.54000000    32.88000000
   H     67.89000000    62.11000000    34.16000000
   H     67.30000000    61.19000000    35.48000000
   N     69.48000000    57.92000000    33.27000000
   C     70.64000000    57.24000000    33.80000000
   C     71.76000000    57.17000000    32.78000000
   O     72.95000000    57.31000000    33.05000000
   C     70.26000000    55.85000000    34.32000000
   C     69.24000000    55.81000000    35.45000000
   C     68.93000000    54.38000000    35.87000000
   O     68.95000000    54.14000000    37.10000000
   O     68.24000000    53.66000000    35.13000000
   H     69.04000000    57.46000000    32.48000000
   H     70.99000000    57.62000000    34.76000000
   H     71.17000000    55.42000000    34.73000000
   H     69.86000000    55.26000000    33.49000000
   H     68.30000000    56.28000000    35.13000000
   H     69.65000000    56.34000000    36.31000000
   N     71.42000000    57.05000000    31.49000000
   C     72.32000000    56.91000000    30.36000000
   H     73.28100000    56.52900000    30.70600000
   H     71.89200000    56.21400000    29.63800000
   H     72.46500000    57.88100000    29.88700000
   H     70.45000000    57.03000000    31.21000000
  Ca     67.15000000    52.05000000    36.86000000
   O     65.12000000    52.26000000    35.01000000
   H     64.83000000    52.70000000    34.22000000
   H     64.32000000    51.87000000    35.38000000
   O     65.46000000    54.05000000    37.26000000
   H     64.70000000    54.55000000    36.97000000
   H     65.72000000    54.46000000    38.08000000

Ca 1.00



