%chk=loop3.apoCaM-CA-Ng.Init295.run43.water3.chk
%nprocshared=20
%mem=10GB
%nosave
#b3lyp/svp scf=(tight,noincore,xqc) Test 
#IOP(5/87=12) Density=Current Pop=(MK,readradii) iop(6/33=2) iop(6/42=6)

loop3.apoCaM-CA-Ng.Init295.run43.water3 

   0  1 
   C     85.04000000    37.75000000    53.48000000
   C     84.53000000    36.77000000    54.52000000
   O     83.32000000    36.65000000    54.72000000
   H     86.05200000    37.47200000    53.18500000
   H     84.38800000    37.72600000    52.60700000
   H     85.04800000    38.75600000    53.90000000
   N     85.45000000    36.06000000    55.18000000
   C     85.21000000    35.05000000    56.19000000
   C     86.49000000    34.87000000    56.99000000
   O     87.59000000    34.76000000    56.45000000
   C     84.79000000    33.81000000    55.41000000
   C     84.56000000    32.61000000    56.32000000
   O     83.42000000    32.20000000    56.61000000
   O     85.60000000    32.02000000    56.69000000
   H     86.41000000    36.19000000    54.91000000
   H     84.36000000    35.36000000    56.80000000
   H     85.54000000    33.60000000    54.65000000
   H     83.91000000    34.09000000    54.83000000
   N     86.40000000    34.63000000    58.30000000
   C     87.46000000    34.54000000    59.28000000
   C     88.65000000    33.64000000    58.96000000
   O     89.76000000    33.91000000    59.39000000
   C     86.94000000    34.21000000    60.68000000
   C     86.07000000    35.34000000    61.23000000
   C     85.35000000    35.02000000    62.53000000
   C     86.30000000    34.48000000    63.60000000
   N     85.65000000    34.44000000    64.92000000
   H     85.44000000    34.83000000    58.57000000
   H     87.88000000    35.55000000    59.33000000
   H     87.73000000    34.00000000    61.41000000
   H     86.37000000    33.30000000    60.58000000
   H     85.28000000    35.46000000    60.49000000
   H     86.68000000    36.25000000    61.26000000
   H     84.59000000    34.26000000    62.35000000
   H     84.90000000    35.94000000    62.92000000
   H     87.19000000    35.11000000    63.57000000
   H     86.76000000    33.53000000    63.32000000
   H     84.91000000    33.76000000    64.96000000
   H     86.33000000    34.16000000    65.60000000
   H     85.26000000    35.32000000    65.24000000
   N     88.36000000    32.59000000    58.18000000
   C     89.33000000    31.56000000    57.89000000
   C     89.42000000    31.31000000    56.39000000
   O     90.06000000    30.33000000    55.98000000
   C     88.95000000    30.28000000    58.63000000
   C     87.46000000    30.08000000    58.44000000
   O     86.91000000    29.46000000    57.51000000
   O     86.65000000    30.59000000    59.25000000
   H     87.40000000    32.29000000    58.14000000
   H     90.33000000    31.89000000    58.19000000
   H     89.17000000    30.35000000    59.70000000
   H     89.52000000    29.41000000    58.31000000
   N     88.68000000    32.13000000    55.65000000
   C     88.72000000    32.09000000    54.20000000
   C     87.79000000    31.07000000    53.57000000
   O     87.84000000    30.89000000    52.35000000
   H     88.28000000    32.94000000    56.09000000
   H     89.69000000    31.86000000    53.77000000
   H     88.36000000    33.04000000    53.79000000
   N     87.05000000    30.25000000    54.31000000
   C     86.16000000    29.23000000    53.78000000
   C     84.77000000    29.53000000    54.32000000
   O     84.51000000    29.31000000    55.50000000
   C     86.72000000    27.86000000    54.14000000
   C     88.00000000    27.48000000    53.41000000
   N     87.94000000    27.45000000    52.07000000
   O     89.04000000    27.20000000    53.99000000
   H     87.12000000    30.37000000    55.31000000
   H     86.02000000    29.26000000    52.70000000
   H     85.97000000    27.12000000    53.86000000
   H     86.79000000    27.82000000    55.23000000
   H     87.04000000    27.49000000    51.62000000
   H     88.72000000    27.01000000    51.61000000
   N     83.94000000    30.17000000    53.51000000
   C     82.62000000    30.77000000    53.66000000
   C     81.57000000    30.18000000    54.59000000
   O     80.56000000    30.85000000    54.72000000
   H     84.37000000    30.36000000    52.62000000
   H     82.16000000    30.92000000    52.68000000
   H     82.84000000    31.79000000    53.98000000
   N     81.64000000    28.92000000    55.03000000
   C     80.74000000    28.40000000    56.04000000
   C     80.79000000    29.13000000    57.37000000
   O     81.86000000    29.42000000    57.92000000
   C     81.00000000    26.91000000    56.23000000
   C     80.68000000    26.07000000    55.01000000
   C     81.72000000    25.64000000    54.18000000
   C     79.38000000    25.58000000    54.84000000
   C     81.39000000    24.80000000    53.11000000
   C     79.08000000    24.79000000    53.73000000
   C     80.11000000    24.22000000    52.96000000
   O     79.79000000    23.42000000    51.90000000
   H     82.51000000    28.44000000    54.87000000
   H     79.72000000    28.50000000    55.68000000
   H     80.39000000    26.61000000    57.08000000
   H     82.05000000    26.77000000    56.49000000
   H     82.76000000    25.90000000    54.30000000
   H     78.60000000    25.94000000    55.49000000
   H     82.21000000    24.57000000    52.44000000
   H     78.08000000    24.42000000    53.55000000
   H     78.83000000    23.38000000    51.86000000
   N     79.59000000    29.35000000    57.91000000
   C     79.14000000    29.93000000    59.16000000
   C     79.79000000    29.55000000    60.48000000
   O     80.84000000    28.93000000    60.61000000
   C     79.10000000    31.44000000    58.91000000
   C     78.14000000    31.84000000    57.79000000
   C     80.41000000    32.18000000    58.65000000
   C     77.37000000    33.14000000    57.95000000
   H     78.84000000    28.87000000    57.44000000
   H     78.08000000    29.76000000    59.30000000
   H     78.77000000    31.89000000    59.84000000
   H     77.39000000    31.05000000    57.75000000
   H     78.66000000    31.76000000    56.83000000
   H     80.18000000    33.24000000    58.74000000
   H     81.18000000    31.95000000    59.39000000
   H     80.77000000    32.01000000    57.64000000
   H     76.53000000    33.16000000    57.26000000
   H     77.00000000    33.23000000    58.97000000
   H     78.08000000    33.93000000    57.68000000
   N     78.97000000    29.71000000    61.52000000
   C     79.11000000    29.02000000    62.79000000
   C     77.86000000    28.91000000    63.65000000
   O     77.97000000    28.50000000    64.80000000
   C     80.24000000    29.67000000    63.58000000
   O     81.45000000    29.03000000    63.25000000
   H     78.11000000    30.22000000    61.39000000
   H     79.51000000    28.01000000    62.69000000
   H     79.94000000    29.62000000    64.63000000
   H     80.27000000    30.70000000    63.24000000
   H     81.51000000    29.07000000    62.29000000
   N     76.68000000    29.22000000    63.10000000
   C     75.35000000    29.12000000    63.66000000
   C     75.30000000    29.26000000    65.17000000
   O     74.93000000    28.33000000    65.89000000
   C     74.69000000    27.84000000    63.15000000
   H     76.63000000    29.42000000    62.11000000
   H     74.79000000    29.95000000    63.23000000
   H     75.28000000    26.93000000    63.21000000
   H     73.66000000    27.71000000    63.50000000
   H     74.65000000    28.11000000    62.10000000
   N     75.67000000    30.40000000    65.76000000
   C     75.80000000    31.70000000    65.14000000
   C     74.41000000    32.31000000    65.17000000
   O     73.67000000    32.08000000    66.12000000
   C     76.84000000    32.51000000    65.91000000
   H     75.37000000    30.40000000    66.73000000
   H     76.25000000    31.59000000    64.15000000
   H     77.73000000    31.89000000    66.02000000
   H     77.03000000    33.47000000    65.42000000
   H     76.50000000    32.74000000    66.92000000
   N     73.99000000    32.96000000    64.08000000
   C     74.65000000    33.45000000    62.88000000
   C     73.79000000    33.13000000    61.67000000
   O     74.30000000    32.88000000    60.58000000
   C     74.90000000    34.95000000    63.01000000
   C     75.59000000    35.66000000    61.85000000
   C     76.37000000    36.92000000    62.18000000
   O     77.56000000    36.85000000    62.56000000
   O     75.82000000    38.02000000    61.98000000
   H     73.04000000    33.26000000    64.22000000
   H     75.61000000    32.99000000    62.64000000
   H     75.50000000    35.14000000    63.90000000
   H     73.92000000    35.40000000    63.19000000
   H     74.81000000    35.96000000    61.15000000
   H     76.17000000    34.92000000    61.30000000
   N     72.48000000    33.03000000    61.88000000
   C     71.45000000    32.84000000    60.88000000
   H     70.60400000    33.49000000    61.10300000
   H     71.84800000    33.08700000    59.89600000
   H     71.12100000    31.80100000    60.88900000
   H     72.23000000    33.28000000    62.83000000
  Ca     84.42000000    30.14000000    58.03000000
   O     83.57000000    29.23000000    60.51000000
   H     82.63000000    29.03000000    60.57000000
   H     83.99000000    28.55000000    61.04000000
   O     84.50000000    27.50000000    58.17000000
   H     84.13000000    27.00000000    58.90000000
   H     85.14000000    26.91000000    57.78000000
   O     83.74000000    32.05000000    59.72000000
   H     83.32000000    32.07000000    60.59000000
   H     83.79000000    32.96000000    59.46000000

Ca 1.00



