%chk=loop4.holoCaM-CaMKII.run61.water1.chk
%nprocshared=20
%mem=10GB
%nosave
#b3lyp/svp scf=(tight,noincore,xqc) Test 
#IOP(5/87=12) Density=Current Pop=(MK,readradii) iop(6/33=2) iop(6/42=6)

loop4.holoCaM-CaMKII.run61.water1 

   -3  1 
   C     34.96000000    49.20000000    23.68000000
   C     36.10000000    48.20000000    23.59000000
   O     36.08000000    47.38000000    24.51000000
   H     34.09600000    48.72400000    24.14400000
   H     35.27100000    50.05300000    24.28300000
   H     34.69400000    49.53900000    22.67900000
   N     36.96000000    48.14000000    22.57000000
   C     38.12000000    47.28000000    22.49000000
   C     39.21000000    47.77000000    23.43000000
   O     39.64000000    48.90000000    23.22000000
   C     38.58000000    47.27000000    21.04000000
   C     39.73000000    46.30000000    20.81000000
   O     40.25000000    46.32000000    19.68000000
   O     40.11000000    45.48000000    21.68000000
   H     36.90000000    48.87000000    21.87000000
   H     37.87000000    46.26000000    22.80000000
   H     38.87000000    48.30000000    20.79000000
   H     37.80000000    46.86000000    20.39000000
   N     39.73000000    46.91000000    24.31000000
   C     40.66000000    47.24000000    25.37000000
   C     42.06000000    46.86000000    24.90000000
   O     42.98000000    47.66000000    24.83000000
   C     40.32000000    47.02000000    26.85000000
   C     38.89000000    47.50000000    27.08000000
   C     41.40000000    47.66000000    27.72000000
   C     38.37000000    47.19000000    28.48000000
   H     39.52000000    45.94000000    24.14000000
   H     40.66000000    48.33000000    25.37000000
   H     40.29000000    45.95000000    27.06000000
   H     38.23000000    47.11000000    26.31000000
   H     38.83000000    48.57000000    26.90000000
   H     42.30000000    47.14000000    27.39000000
   H     41.49000000    48.74000000    27.59000000
   H     41.17000000    47.36000000    28.74000000
   H     37.57000000    47.85000000    28.83000000
   H     37.98000000    46.17000000    28.39000000
   H     39.21000000    47.25000000    29.18000000
   N     42.24000000    45.63000000    24.40000000
   C     43.49000000    44.94000000    24.17000000
   C     44.02000000    45.22000000    22.77000000
   O     45.24000000    45.07000000    22.62000000
   C     43.32000000    43.44000000    24.37000000
   C     42.15000000    42.77000000    23.68000000
   O     41.19000000    42.38000000    24.38000000
   O     42.15000000    42.66000000    22.43000000
   H     41.36000000    45.14000000    24.36000000
   H     44.23000000    45.27000000    24.90000000
   H     43.39000000    43.14000000    25.42000000
   H     44.26000000    43.04000000    23.98000000
   N     43.18000000    45.68000000    21.84000000
   C     43.53000000    46.19000000    20.53000000
   C     43.50000000    45.17000000    19.40000000
   O     44.14000000    45.49000000    18.40000000
   H     42.21000000    45.76000000    22.09000000
   H     44.57000000    46.50000000    20.62000000
   H     42.82000000    46.95000000    20.20000000
   N     42.90000000    43.99000000    19.60000000
   C     42.68000000    43.06000000    18.51000000
   C     41.82000000    43.57000000    17.37000000
   O     41.86000000    43.03000000    16.26000000
   C     42.17000000    41.75000000    19.10000000
   C     40.88000000    41.78000000    19.91000000
   O     40.67000000    40.96000000    20.83000000
   O     40.01000000    42.67000000    19.78000000
   H     42.46000000    43.95000000    20.50000000
   H     43.69000000    42.85000000    18.15000000
   H     42.91000000    41.35000000    19.80000000
   H     42.05000000    41.01000000    18.31000000
   N     40.95000000    44.57000000    17.54000000
   C     40.03000000    45.02000000    16.52000000
   C     38.58000000    44.59000000    16.69000000
   O     37.82000000    44.70000000    15.73000000
   H     40.83000000    44.94000000    18.47000000
   H     40.37000000    44.67000000    15.55000000
   H     40.07000000    46.11000000    16.47000000
   N     38.23000000    44.00000000    17.84000000
   C     36.93000000    43.44000000    18.12000000
   C     36.66000000    43.37000000    19.62000000
   O     37.50000000    43.11000000    20.48000000
   C     36.71000000    42.13000000    17.37000000
   C     37.58000000    40.96000000    17.83000000
   C     37.36000000    39.75000000    16.94000000
   N     38.27000000    38.77000000    17.00000000
   O     36.39000000    39.57000000    16.22000000
   H     39.00000000    43.60000000    18.35000000
   H     36.23000000    44.18000000    17.73000000
   H     36.82000000    42.34000000    16.30000000
   H     35.69000000    41.80000000    17.54000000
   H     37.20000000    40.72000000    18.82000000
   H     38.55000000    41.44000000    17.76000000
   H     39.10000000    38.76000000    17.58000000
   H     38.10000000    37.99000000    16.39000000
   N     35.39000000    43.67000000    19.91000000
   C     34.79000000    43.73000000    21.23000000
   C     34.32000000    42.34000000    21.62000000
   O     33.43000000    41.82000000    20.95000000
   C     33.60000000    44.69000000    21.30000000
   C     33.22000000    44.86000000    22.77000000
   C     33.75000000    46.04000000    20.59000000
   H     34.76000000    43.74000000    19.12000000
   H     35.57000000    44.12000000    21.88000000
   H     32.73000000    44.24000000    20.83000000
   H     32.28000000    45.41000000    22.75000000
   H     33.20000000    43.91000000    23.31000000
   H     33.97000000    45.50000000    23.23000000
   H     32.81000000    46.57000000    20.76000000
   H     34.63000000    46.55000000    20.99000000
   H     33.82000000    45.79000000    19.53000000
   N     34.89000000    41.68000000    22.63000000
   C     34.43000000    40.41000000    23.17000000
   C     33.46000000    40.64000000    24.31000000
   O     33.18000000    41.76000000    24.74000000
   C     35.63000000    39.62000000    23.69000000
   C     36.10000000    39.63000000    25.14000000
   N     36.82000000    40.66000000    25.58000000
   O     35.83000000    38.64000000    25.83000000
   H     35.64000000    42.14000000    23.12000000
   H     33.92000000    39.81000000    22.41000000
   H     36.46000000    40.01000000    23.11000000
   H     35.46000000    38.63000000    23.29000000
   H     36.96000000    41.54000000    25.10000000
   H     37.29000000    40.52000000    26.47000000
   N     32.91000000    39.54000000    24.82000000
   C     31.91000000    39.58000000    25.87000000
   C     32.37000000    40.16000000    27.20000000
   O     31.72000000    41.08000000    27.68000000
   C     31.33000000    38.18000000    26.10000000
   C     30.33000000    38.21000000    27.23000000
   C     29.03000000    38.66000000    26.95000000
   C     30.58000000    37.72000000    28.52000000
   C     28.04000000    38.62000000    27.93000000
   C     29.61000000    37.66000000    29.52000000
   C     28.32000000    38.15000000    29.23000000
   O     27.25000000    38.00000000    30.06000000
   H     33.04000000    38.65000000    24.34000000
   H     31.10000000    40.23000000    25.54000000
   H     32.15000000    37.55000000    26.44000000
   H     30.93000000    37.68000000    25.22000000
   H     28.83000000    39.02000000    25.95000000
   H     31.61000000    37.44000000    28.72000000
   H     27.04000000    38.99000000    27.77000000
   H     29.92000000    37.34000000    30.50000000
   H     27.47000000    37.81000000    30.98000000
   N     33.59000000    39.87000000    27.66000000
   C     34.23000000    40.48000000    28.81000000
   C     34.34000000    41.98000000    28.59000000
   O     34.01000000    42.72000000    29.51000000
   C     35.62000000    39.89000000    29.03000000
   C     35.62000000    38.49000000    29.62000000
   C     37.01000000    37.92000000    29.85000000
   O     37.23000000    37.15000000    30.81000000
   O     37.98000000    38.11000000    29.08000000
   H     34.13000000    39.19000000    27.15000000
   H     33.61000000    40.25000000    29.67000000
   H     36.22000000    40.55000000    29.66000000
   H     36.15000000    39.86000000    28.08000000
   H     34.95000000    37.92000000    28.96000000
   H     35.16000000    38.41000000    30.60000000
   N     34.75000000    42.53000000    27.44000000
   C     34.81000000    43.95000000    27.18000000
   C     33.49000000    44.69000000    27.06000000
   O     33.41000000    45.91000000    27.20000000
   C     35.69000000    44.19000000    25.95000000
   C     37.16000000    43.82000000    26.13000000
   C     37.77000000    43.61000000    24.75000000
   O     38.76000000    44.27000000    24.36000000
   O     37.39000000    42.70000000    23.98000000
   H     35.02000000    41.95000000    26.66000000
   H     35.37000000    44.43000000    27.98000000
   H     35.71000000    45.23000000    25.64000000
   H     35.23000000    43.60000000    25.16000000
   H     37.28000000    42.92000000    26.72000000
   H     37.76000000    44.55000000    26.68000000
   N     32.38000000    44.02000000    26.73000000
   C     31.07000000    44.61000000    26.56000000
   H     30.37300000    44.15400000    27.26300000
   H     31.12600000    45.68200000    26.74900000
   H     30.72300000    44.43800000    25.54100000
   H     32.43000000    43.01000000    26.61000000
  Ca     39.49000000    42.76000000    22.26000000
   O     39.26000000    40.28000000    23.27000000
   H     39.75000000    39.77000000    22.63000000
   H     39.13000000    39.67000000    24.00000000

Ca 1.00



