%chk=loop1.apoCaM-CA-Ng.Init293.run60.water5.chk
%nprocshared=20
%mem=10GB
%nosave
#b3lyp/svp scf=(tight,noincore,xqc) Test 
#IOP(5/87=12) Density=Current Pop=(MK,readradii) iop(6/33=2) iop(6/42=6)

loop1.apoCaM-CA-Ng.Init293.run60.water5 

   0  1 
   C     77.54000000    72.59000000    65.93000000
   C     78.99000000    72.87000000    65.56000000
   O     79.43000000    73.99000000    65.31000000
   H     76.90600000    72.75000000    65.05800000
   H     77.44300000    71.55700000    66.26500000
   H     77.23200000    73.26300000    66.73000000
   N     79.81000000    71.82000000    65.48000000
   C     81.23000000    71.81000000    65.23000000
   C     81.63000000    71.67000000    63.77000000
   O     82.84000000    71.64000000    63.55000000
   C     81.74000000    70.55000000    65.92000000
   C     81.12000000    69.22000000    65.50000000
   O     80.12000000    68.78000000    66.10000000
   O     81.70000000    68.60000000    64.58000000
   H     79.40000000    70.95000000    65.78000000
   H     81.78000000    72.58000000    65.77000000
   H     81.65000000    70.61000000    67.00000000
   H     82.81000000    70.49000000    65.72000000
   N     80.67000000    71.49000000    62.86000000
   C     80.82000000    71.22000000    61.44000000
   C     81.10000000    72.48000000    60.64000000
   O     80.42000000    73.48000000    60.80000000
   C     79.58000000    70.48000000    60.93000000
   C     79.27000000    69.13000000    61.56000000
   C     80.43000000    68.14000000    61.47000000
   C     80.09000000    66.78000000    62.07000000
   N     80.03000000    66.76000000    63.54000000
   H     79.73000000    71.49000000    63.25000000
   H     81.60000000    70.48000000    61.28000000
   H     79.63000000    70.45000000    59.84000000
   H     78.71000000    71.09000000    61.15000000
   H     78.35000000    68.77000000    61.10000000
   H     79.01000000    69.25000000    62.62000000
   H     81.17000000    68.64000000    62.09000000
   H     80.81000000    68.09000000    60.45000000
   H     80.89000000    66.11000000    61.76000000
   H     79.12000000    66.51000000    61.65000000
   H     79.92000000    65.84000000    63.94000000
   H     80.89000000    67.02000000    64.00000000
   H     79.38000000    67.48000000    63.81000000
   N     82.15000000    72.58000000    59.81000000
   C     83.27000000    71.71000000    59.54000000
   C     84.53000000    72.41000000    59.08000000
   O     84.78000000    72.59000000    57.89000000
   C     82.95000000    70.58000000    58.56000000
   C     84.10000000    69.62000000    58.32000000
   O     85.04000000    69.62000000    59.14000000
   O     84.06000000    68.96000000    57.26000000
   H     82.20000000    73.49000000    59.38000000
   H     83.42000000    71.12000000    60.45000000
   H     82.61000000    71.06000000    57.63000000
   H     82.16000000    69.97000000    58.99000000
   N     85.28000000    73.07000000    59.97000000
   C     85.17000000    73.30000000    61.39000000
   C     85.53000000    74.72000000    61.80000000
   O     86.38000000    75.27000000    61.10000000
   H     86.04000000    73.57000000    59.52000000
   H     85.93000000    72.65000000    61.82000000
   H     84.21000000    72.95000000    61.79000000
   N     84.86000000    75.37000000    62.76000000
   C     83.71000000    74.89000000    63.49000000
   C     83.59000000    75.62000000    64.82000000
   O     84.28000000    76.58000000    65.17000000
   C     82.46000000    75.06000000    62.65000000
   C     82.21000000    76.47000000    62.13000000
   O     81.41000000    76.60000000    61.17000000
   O     82.75000000    77.46000000    62.67000000
   H     85.05000000    76.35000000    62.90000000
   H     83.85000000    73.83000000    63.69000000
   H     81.60000000    74.65000000    63.18000000
   H     82.68000000    74.44000000    61.78000000
   N     82.66000000    75.12000000    65.64000000
   C     82.50000000    75.54000000    67.01000000
   C     81.56000000    76.73000000    67.13000000
   O     81.85000000    77.63000000    67.92000000
   H     82.06000000    74.35000000    65.34000000
   H     83.47000000    75.83000000    67.42000000
   H     82.07000000    74.67000000    67.50000000
   N     80.54000000    76.83000000    66.27000000
   C     79.80000000    78.05000000    66.00000000
   C     78.36000000    77.78000000    65.60000000
   O     78.05000000    76.74000000    65.01000000
   C     80.61000000    78.85000000    64.97000000
   C     80.16000000    80.30000000    64.84000000
   O     80.47000000    78.22000000    63.71000000
   H     80.42000000    76.10000000    65.59000000
   H     79.72000000    78.60000000    66.94000000
   H     81.65000000    78.91000000    65.29000000
   H     81.31000000    78.14000000    63.26000000
   H     79.08000000    80.37000000    64.95000000
   H     80.59000000    80.88000000    65.65000000
   H     80.55000000    80.72000000    63.91000000
   N     77.48000000    78.68000000    66.04000000
   C     76.05000000    78.67000000    65.80000000
   C     75.63000000    80.06000000    65.35000000
   O     75.84000000    81.07000000    66.02000000
   C     75.32000000    78.11000000    67.02000000
   C     73.88000000    77.80000000    66.61000000
   C     75.63000000    78.95000000    68.25000000
   C     73.74000000    76.90000000    65.39000000
   H     77.83000000    79.42000000    66.63000000
   H     75.87000000    77.99000000    64.97000000
   H     75.79000000    77.14000000    67.19000000
   H     73.46000000    78.76000000    66.32000000
   H     73.29000000    77.52000000    67.48000000
   H     75.41000000    80.00000000    68.10000000
   H     75.04000000    78.75000000    69.15000000
   H     76.69000000    78.83000000    68.47000000
   H     74.41000000    76.06000000    65.56000000
   H     72.75000000    76.47000000    65.25000000
   H     73.92000000    77.47000000    64.47000000
   N     75.04000000    80.15000000    64.15000000
   C     74.71000000    81.32000000    63.38000000
   C     73.53000000    81.15000000    62.43000000
   O     72.59000000    81.92000000    62.54000000
   C     75.96000000    81.78000000    62.62000000
   C     75.80000000    83.02000000    61.75000000
   O     76.56000000    80.79000000    61.82000000
   H     74.92000000    79.28000000    63.64000000
   H     74.45000000    82.10000000    64.10000000
   H     76.69000000    82.09000000    63.37000000
   H     77.48000000    81.00000000    61.98000000
   H     75.83000000    83.94000000    62.34000000
   H     76.56000000    83.00000000    60.97000000
   H     74.76000000    83.07000000    61.42000000
   N     73.48000000    80.11000000    61.58000000
   C     72.57000000    79.86000000    60.49000000
   C     72.85000000    80.67000000    59.23000000
   O     73.27000000    81.82000000    59.33000000
   C     71.08000000    79.91000000    60.83000000
   C     70.82000000    79.20000000    62.16000000
   O     70.26000000    79.32000000    59.86000000
   H     74.16000000    79.39000000    61.77000000
   H     72.75000000    78.83000000    60.18000000
   H     70.87000000    80.98000000    60.91000000
   H     69.67000000    78.74000000    60.34000000
   H     71.29000000    78.21000000    62.11000000
   H     71.10000000    79.90000000    62.94000000
   H     69.75000000    79.02000000    62.26000000
   N     72.47000000    80.24000000    58.02000000
   C     72.78000000    80.83000000    56.74000000
   C     73.41000000    79.91000000    55.70000000
   O     73.72000000    80.46000000    54.64000000
   C     71.48000000    81.43000000    56.20000000
   C     71.08000000    82.76000000    56.83000000
   C     69.71000000    83.21000000    56.32000000
   C     69.35000000    84.57000000    56.89000000
   N     69.17000000    84.64000000    58.35000000
   H     71.69000000    79.59000000    58.07000000
   H     73.45000000    81.68000000    56.85000000
   H     70.62000000    80.78000000    56.38000000
   H     71.63000000    81.62000000    55.14000000
   H     71.83000000    83.51000000    56.58000000
   H     71.03000000    82.60000000    57.91000000
   H     68.98000000    82.44000000    56.58000000
   H     69.72000000    83.32000000    55.23000000
   H     68.40000000    84.78000000    56.39000000
   H     70.10000000    85.28000000    56.53000000
   H     70.02000000    84.52000000    58.88000000
   H     68.84000000    85.55000000    58.62000000
   H     68.41000000    84.09000000    58.74000000
   N     73.64000000    78.60000000    55.74000000
   C     73.54000000    77.59000000    56.78000000
   C     72.13000000    77.40000000    57.32000000
   O     71.91000000    77.13000000    58.50000000
   C     74.74000000    77.68000000    57.71000000
   C     74.80000000    76.48000000    58.65000000
   C     76.23000000    76.32000000    59.14000000
   O     76.62000000    76.74000000    60.26000000
   O     77.18000000    75.89000000    58.45000000
   H     74.13000000    78.29000000    54.92000000
   H     73.76000000    76.64000000    56.29000000
   H     74.69000000    78.59000000    58.31000000
   H     75.61000000    77.89000000    57.10000000
   H     74.53000000    75.56000000    58.13000000
   H     74.08000000    76.64000000    59.45000000
   N     71.19000000    77.48000000    56.37000000
   C     69.79000000    77.46000000    56.74000000
   H     69.19000000    77.17700000    55.87500000
   H     69.63500000    76.73700000    57.54100000
   H     69.49000000    78.45100000    57.08200000
   H     71.48000000    77.57000000    55.41000000
  Ca     78.95000000    75.61000000    60.37000000
   O     79.41000000    77.87000000    58.97000000
   H     78.83000000    78.44000000    58.46000000
   H     79.76000000    78.44000000    59.65000000
   O     78.22000000    74.91000000    62.99000000
   H     78.20000000    75.35000000    63.84000000
   H     78.03000000    73.99000000    63.19000000
   O     77.27000000    73.49000000    60.63000000
   H     77.18000000    73.07000000    61.48000000
   H     76.50000000    73.21000000    60.13000000
   O     78.76000000    77.65000000    61.96000000
   H     77.88000000    77.59000000    62.34000000
   H     79.34000000    77.80000000    62.70000000
   O     79.91000000    74.58000000    58.11000000
   H     80.54000000    75.21000000    57.76000000
   H     80.01000000    73.80000000    57.55000000

Ca 1.00



