%chk=loop2.apoCaM-CA-Ng.Init295.run90.water2.chk
%nprocshared=20
%mem=10GB
%nosave
#b3lyp/svp scf=(tight,noincore,xqc) Test 
#IOP(5/87=12) Density=Current Pop=(MK,readradii) iop(6/33=2) iop(6/42=6)

loop2.apoCaM-CA-Ng.Init295.run90.water2 

   -2  1 
   C     20.41000000    -3.71000000    86.01000000
   C     20.94000000    -3.79000000    87.43000000
   O     21.20000000    -2.73000000    87.99000000
   H     19.53100000    -3.06600000    85.98700000
   H     21.17900000    -3.29800000    85.35700000
   H     20.13700000    -4.70800000    85.66700000
   N     21.10000000    -4.97000000    88.04000000
   C     21.72000000    -5.08000000    89.34000000
   C     20.94000000    -4.43000000    90.48000000
   O     21.42000000    -4.29000000    91.60000000
   C     22.01000000    -6.54000000    89.69000000
   C     23.23000000    -7.13000000    88.99000000
   O     23.33000000    -8.37000000    89.00000000
   O     24.07000000    -6.33000000    88.53000000
   H     21.07000000    -5.82000000    87.49000000
   H     22.63000000    -4.48000000    89.41000000
   H     21.12000000    -7.02000000    89.28000000
   H     22.09000000    -6.78000000    90.75000000
   N     19.64000000    -4.22000000    90.22000000
   C     18.78000000    -3.55000000    91.17000000
   C     17.34000000    -3.94000000    90.85000000
   O     16.91000000    -4.10000000    89.71000000
   C     18.83000000    -2.03000000    91.05000000
   H     19.29000000    -4.58000000    89.35000000
   H     19.06000000    -3.87000000    92.17000000
   H     18.49000000    -1.76000000    90.04000000
   H     18.24000000    -1.60000000    91.86000000
   H     19.84000000    -1.66000000    91.22000000
   N     16.40000000    -4.08000000    91.78000000
   C     16.52000000    -3.95000000    93.22000000
   C     16.59000000    -5.29000000    93.95000000
   O     16.64000000    -5.40000000    95.17000000
   C     15.31000000    -3.14000000    93.66000000
   C     15.24000000    -2.73000000    95.13000000
   O     16.13000000    -2.02000000    95.64000000
   O     14.29000000    -3.21000000    95.79000000
   H     15.46000000    -4.25000000    91.45000000
   H     17.46000000    -3.46000000    93.47000000
   H     14.47000000    -3.78000000    93.42000000
   H     15.37000000    -2.27000000    93.00000000
   N     16.58000000    -6.37000000    93.17000000
   C     16.53000000    -7.75000000    93.60000000
   C     17.89000000    -8.33000000    93.96000000
   O     18.88000000    -7.80000000    93.47000000
   H     16.61000000    -6.26000000    92.16000000
   H     16.13000000    -8.40000000    92.83000000
   H     15.82000000    -7.81000000    94.43000000
   N     18.01000000    -9.47000000    94.64000000
   C     16.95000000   -10.31000000    95.17000000
   C     16.07000000   -10.91000000    94.08000000
   O     16.50000000   -11.26000000    92.98000000
   C     17.64000000   -11.36000000    96.04000000
   C     16.59000000   -12.06000000    96.88000000
   N     16.05000000   -11.31000000    97.84000000
   O     16.16000000   -13.19000000    96.63000000
   H     18.94000000    -9.85000000    94.68000000
   H     16.28000000    -9.68000000    95.75000000
   H     18.39000000   -10.88000000    96.67000000
   H     18.21000000   -12.10000000    95.48000000
   H     16.36000000   -10.37000000    98.03000000
   H     15.49000000   -11.72000000    98.57000000
   N     14.77000000   -11.04000000    94.34000000
   C     13.86000000   -11.72000000    93.44000000
   C     12.69000000   -10.88000000    92.96000000
   O     12.08000000   -11.20000000    91.94000000
   H     14.45000000   -10.96000000    95.29000000
   H     13.48000000   -12.59000000    93.97000000
   H     14.29000000   -12.30000000    92.61000000
   N     12.47000000    -9.70000000    93.54000000
   C     11.35000000    -8.80000000    93.35000000
   C     11.71000000    -7.40000000    92.88000000
   O     12.77000000    -6.87000000    93.21000000
   C     10.49000000    -8.73000000    94.61000000
   C      9.97000000   -10.02000000    95.24000000
   O     11.15000000    -8.07000000    95.66000000
   H     13.09000000    -9.54000000    94.33000000
   H     10.66000000    -9.27000000    92.64000000
   H      9.67000000    -8.12000000    94.23000000
   H     10.45000000    -7.55000000    96.08000000
   H     10.78000000   -10.47000000    95.81000000
   H      9.05000000    -9.95000000    95.82000000
   H      9.80000000   -10.73000000    94.44000000
   N     10.78000000    -6.77000000    92.16000000
   C     10.87000000    -5.43000000    91.61000000
   C      9.49000000    -4.80000000    91.60000000
   O      8.45000000    -5.44000000    91.73000000
   C     11.45000000    -5.38000000    90.20000000
   C     12.93000000    -5.70000000    90.34000000
   C     10.77000000    -6.41000000    89.30000000
   C     13.86000000    -5.51000000    89.14000000
   H      9.87000000    -7.19000000    92.02000000
   H     11.50000000    -4.77000000    92.21000000
   H     11.26000000    -4.38000000    89.80000000
   H     12.97000000    -6.78000000    90.46000000
   H     13.31000000    -5.08000000    91.16000000
   H     10.84000000    -7.45000000    89.64000000
   H      9.70000000    -6.18000000    89.28000000
   H     11.24000000    -6.32000000    88.32000000
   H     14.18000000    -4.48000000    88.95000000
   H     14.77000000    -6.06000000    89.36000000
   H     13.43000000    -5.85000000    88.20000000
   N      9.47000000    -3.47000000    91.51000000
   C      8.25000000    -2.68000000    91.64000000
   C      8.38000000    -1.28000000    91.06000000
   O      9.39000000    -0.61000000    91.27000000
   C      7.91000000    -2.56000000    93.12000000
   C      9.03000000    -2.50000000    94.14000000
   O      9.63000000    -3.56000000    94.46000000
   O      9.49000000    -1.43000000    94.59000000
   H     10.33000000    -2.94000000    91.56000000
   H      7.47000000    -3.21000000    91.10000000
   H      7.29000000    -3.44000000    93.29000000
   H      7.24000000    -1.72000000    93.33000000
   N      7.32000000    -0.91000000    90.34000000
   C      6.98000000     0.40000000    89.82000000
   C      8.13000000     0.78000000    88.89000000
   O      8.23000000     0.14000000    87.84000000
   C      5.60000000     0.41000000    89.17000000
   C      5.11000000     1.80000000    88.83000000
   C      5.58000000     2.40000000    87.65000000
   C      4.36000000     2.58000000    89.71000000
   C      5.40000000     3.77000000    87.45000000
   C      4.13000000     3.93000000    89.41000000
   C      4.67000000     4.61000000    88.31000000
   H      6.55000000    -1.55000000    90.25000000
   H      6.77000000     1.06000000    90.66000000
   H      4.85000000    -0.03000000    89.83000000
   H      5.71000000    -0.18000000    88.26000000
   H      6.16000000     1.74000000    87.02000000
   H      3.93000000     2.09000000    90.57000000
   H      5.77000000     4.20000000    86.53000000
   H      3.52000000     4.48000000    90.11000000
   H      4.50000000     5.67000000    88.17000000
   N      8.88000000     1.83000000    89.23000000
   C     10.00000000     2.31000000    88.45000000
   C     11.13000000     1.32000000    88.21000000
   O     11.93000000     1.52000000    87.29000000
   C     10.53000000     3.51000000    89.22000000
   C      9.35000000     4.06000000    90.01000000
   C      8.74000000     2.71000000    90.37000000
   H      9.59000000     2.66000000    87.50000000
   H     11.31000000     3.15000000    89.88000000
   H     10.99000000     4.22000000    88.52000000
   H      9.64000000     4.67000000    90.87000000
   H      8.70000000     4.63000000    89.34000000
   H      9.36000000     2.34000000    91.19000000
   H      7.72000000     2.83000000    90.73000000
   N     11.34000000     0.29000000    89.03000000
   C     12.31000000    -0.77000000    88.81000000
   C     12.03000000    -1.57000000    87.54000000
   O     12.95000000    -2.02000000    86.86000000
   C     12.22000000    -1.72000000    89.99000000
   C     12.89000000    -1.01000000    91.17000000
   C     12.44000000    -1.58000000    92.51000000
   O     12.73000000    -0.91000000    93.53000000
   O     11.87000000    -2.69000000    92.59000000
   H     10.63000000     0.02000000    89.69000000
   H     13.34000000    -0.41000000    88.79000000
   H     12.79000000    -2.63000000    89.81000000
   H     11.23000000    -2.13000000    90.19000000
   H     12.61000000     0.04000000    91.21000000
   H     13.96000000    -1.09000000    91.00000000
   N     10.75000000    -1.66000000    87.17000000
   C     10.34000000    -2.36000000    85.98000000
   H      9.46800000    -1.86700000    85.55100000
   H     11.15400000    -2.35300000    85.25500000
   H     10.08700000    -3.39000000    86.23300000
   H     10.04000000    -1.22000000    87.74000000
  Ca     11.94000000    -2.71600000    95.23000000
   O     12.81000000    -0.50600000    96.52000000
   H     12.25000000    -0.11600000    97.20000000
   H     13.25000000     0.24400000    96.12000000
   O     12.18000000    -5.31600000    95.51000000
   H     12.00000000    -5.91600000    94.80000000
   H     12.88000000    -5.73600000    96.02000000

Ca 1.00



