%chk=loop3.holoCaM.run96.water2.chk
%nprocshared=20
%mem=10GB
%nosave
#b3lyp/svp scf=(tight,noincore,xqc) Test 
#IOP(5/87=12) Density=Current Pop=(MK,readradii) iop(6/33=2) iop(6/42=6)

loop3.holoCaM.run96.water2 

   0  1 
   C     40.28000000    44.06000000    15.68000000
   C     41.67000000    44.29000000    16.26000000
   O     42.17000000    43.28000000    16.75000000
   H     39.61200000    44.85400000    16.01400000
   H     40.33400000    44.06500000    14.59100000
   H     39.89800000    43.09800000    16.02100000
   N     42.28000000    45.47000000    16.42000000
   C     43.50000000    45.53000000    17.20000000
   C     43.30000000    45.35000000    18.70000000
   O     42.45000000    46.02000000    19.29000000
   C     44.15000000    46.89000000    16.93000000
   C     45.49000000    47.10000000    17.62000000
   O     45.85000000    48.30000000    17.67000000
   O     46.19000000    46.15000000    18.02000000
   H     41.71000000    46.29000000    16.31000000
   H     44.16000000    44.74000000    16.85000000
   H     43.45000000    47.63000000    17.32000000
   H     44.33000000    46.93000000    15.86000000
   N     44.16000000    44.52000000    19.28000000
   C     43.85000000    43.87000000    20.54000000
   C     44.72000000    44.39000000    21.67000000
   O     44.31000000    44.15000000    22.80000000
   C     43.92000000    42.34000000    20.52000000
   C     42.97000000    41.54000000    19.64000000
   C     41.57000000    41.70000000    20.23000000
   C     40.53000000    40.90000000    19.47000000
   N     39.16000000    41.30000000    19.85000000
   H     44.94000000    44.28000000    18.68000000
   H     42.82000000    44.04000000    20.84000000
   H     43.64000000    42.15000000    21.55000000
   H     44.94000000    42.01000000    20.33000000
   H     43.27000000    40.49000000    19.62000000
   H     42.99000000    41.99000000    18.64000000
   H     41.31000000    42.75000000    20.33000000
   H     41.51000000    41.31000000    21.25000000
   H     40.71000000    39.83000000    19.61000000
   H     40.68000000    41.11000000    18.41000000
   H     39.01000000    42.19000000    19.40000000
   H     38.50000000    40.64000000    19.48000000
   H     39.14000000    41.30000000    20.86000000
   N     45.89000000    45.01000000    21.51000000
   C     46.77000000    45.62000000    22.49000000
   C     46.66000000    47.14000000    22.40000000
   O     47.25000000    47.79000000    23.26000000
   C     48.22000000    45.15000000    22.47000000
   C     49.00000000    45.25000000    21.16000000
   O     48.41000000    45.77000000    20.19000000
   O     50.20000000    44.90000000    21.09000000
   H     46.06000000    45.10000000    20.52000000
   H     46.36000000    45.39000000    23.47000000
   H     48.30000000    44.19000000    22.98000000
   H     48.74000000    45.83000000    23.15000000
   N     45.91000000    47.65000000    21.42000000
   C     45.70000000    49.07000000    21.18000000
   C     46.90000000    49.88000000    20.70000000
   O     46.73000000    51.10000000    20.69000000
   H     45.50000000    46.95000000    20.82000000
   H     45.26000000    49.55000000    22.05000000
   H     45.01000000    49.13000000    20.34000000
   N     47.94000000    49.27000000    20.15000000
   C     49.05000000    49.99000000    19.55000000
   C     48.76000000    50.83000000    18.32000000
   O     49.51000000    51.74000000    17.97000000
   C     50.36000000    49.21000000    19.56000000
   C     50.43000000    48.12000000    18.51000000
   N     51.56000000    47.47000000    18.24000000
   O     49.44000000    47.74000000    17.88000000
   H     48.01000000    48.26000000    20.09000000
   H     49.28000000    50.72000000    20.33000000
   H     50.33000000    48.80000000    20.57000000
   H     51.25000000    49.84000000    19.53000000
   H     52.45000000    47.57000000    18.71000000
   H     51.50000000    46.78000000    17.50000000
   N     47.87000000    50.33000000    17.45000000
   C     47.51000000    50.94000000    16.19000000
   C     47.34000000    49.96000000    15.04000000
   O     46.98000000    50.51000000    14.00000000
   H     47.40000000    49.46000000    17.66000000
   H     48.21000000    51.72000000    15.90000000
   H     46.54000000    51.42000000    16.37000000
   N     47.66000000    48.67000000    15.15000000
   C     48.07000000    47.94000000    13.97000000
   C     47.59000000    46.52000000    14.22000000
   O     47.90000000    45.94000000    15.26000000
   C     49.60000000    47.99000000    13.95000000
   C     50.34000000    49.30000000    14.06000000
   C     50.03000000    50.30000000    13.13000000
   C     51.25000000    49.55000000    15.09000000
   C     50.64000000    51.56000000    13.27000000
   C     51.93000000    50.78000000    15.17000000
   C     51.56000000    51.82000000    14.30000000
   O     52.25000000    52.99000000    14.43000000
   H     48.05000000    48.38000000    16.04000000
   H     47.68000000    48.26000000    13.00000000
   H     49.98000000    47.53000000    13.04000000
   H     50.03000000    47.37000000    14.74000000
   H     49.23000000    50.06000000    12.44000000
   H     51.46000000    48.82000000    15.85000000
   H     50.50000000    52.33000000    12.52000000
   H     52.60000000    50.95000000    16.00000000
   H     52.61000000    53.04000000    15.32000000
   N     46.85000000    45.91000000    13.28000000
   C     46.48000000    44.51000000    13.35000000
   C     47.60000000    43.58000000    12.90000000
   O     48.23000000    43.87000000    11.89000000
   C     45.14000000    44.29000000    12.67000000
   C     44.05000000    45.30000000    13.01000000
   C     44.63000000    42.87000000    12.90000000
   C     43.06000000    45.55000000    11.88000000
   H     46.67000000    46.32000000    12.38000000
   H     46.47000000    44.29000000    14.42000000
   H     45.37000000    44.40000000    11.61000000
   H     44.45000000    46.24000000    13.37000000
   H     43.43000000    44.97000000    13.85000000
   H     43.78000000    42.61000000    12.27000000
   H     45.36000000    42.11000000    12.61000000
   H     44.35000000    42.72000000    13.94000000
   H     42.73000000    44.58000000    11.49000000
   H     42.20000000    46.14000000    12.19000000
   H     43.51000000    46.10000000    11.05000000
   N     47.80000000    42.48000000    13.63000000
   C     48.81000000    41.47000000    13.39000000
   C     48.12000000    40.12000000    13.47000000
   O     46.95000000    40.00000000    13.80000000
   C     49.91000000    41.63000000    14.44000000
   O     49.38000000    41.28000000    15.70000000
   H     47.06000000    42.17000000    14.25000000
   H     49.22000000    41.66000000    12.40000000
   H     50.26000000    42.66000000    14.44000000
   H     50.68000000    40.92000000    14.14000000
   H     48.77000000    41.96000000    15.99000000
   N     48.76000000    39.03000000    13.03000000
   C     48.24000000    37.73000000    12.68000000
   C     47.62000000    37.00000000    13.87000000
   O     46.47000000    36.59000000    13.77000000
   C     49.18000000    36.98000000    11.74000000
   H     49.77000000    39.09000000    13.02000000
   H     47.33000000    37.89000000    12.09000000
   H     50.03000000    36.64000000    12.33000000
   H     48.65000000    36.10000000    11.38000000
   H     49.44000000    37.65000000    10.92000000
   N     48.21000000    37.10000000    15.06000000
   C     47.75000000    36.59000000    16.34000000
   C     46.53000000    37.34000000    16.85000000
   O     45.79000000    36.81000000    17.68000000
   C     48.86000000    36.66000000    17.39000000
   H     49.15000000    37.47000000    15.09000000
   H     47.47000000    35.56000000    16.11000000
   H     48.56000000    36.03000000    18.23000000
   H     49.72000000    36.20000000    16.91000000
   H     49.16000000    37.66000000    17.69000000
   N     46.16000000    38.49000000    16.28000000
   C     45.12000000    39.43000000    16.64000000
   C     43.84000000    39.14000000    15.88000000
   O     42.80000000    38.90000000    16.49000000
   C     45.55000000    40.89000000    16.68000000
   C     46.82000000    41.10000000    17.50000000
   C     47.14000000    42.58000000    17.63000000
   O     47.15000000    43.23000000    18.70000000
   O     47.49000000    43.17000000    16.58000000
   H     46.85000000    38.89000000    15.66000000
   H     44.99000000    39.19000000    17.70000000
   H     44.72000000    41.49000000    17.07000000
   H     45.70000000    41.19000000    15.64000000
   H     47.63000000    40.48000000    17.12000000
   H     46.67000000    40.80000000    18.54000000
   N     44.03000000    38.81000000    14.60000000
   C     42.98000000    38.34000000    13.72000000
   H     42.13600000    39.02800000    13.76200000
   H     43.35700000    38.29000000    12.69800000
   H     42.65600000    37.34900000    14.03700000
   H     44.96000000    38.90000000    14.21000000
  Ca     48.57000000    45.22000000    17.80000000
   O     50.24000000    43.02000000    18.25000000
   H     50.38000000    42.09000000    18.05000000
   H     51.07000000    43.30000000    18.63000000
   O     50.91000000    45.44000000    16.40000000
   H     51.67000000    44.89000000    16.58000000
   H     51.00000000    45.69000000    15.48000000

Ca 1.00



