%chk=loop2.holoCaM.run53.water2.chk
%nprocshared=20
%mem=10GB
%nosave
#b3lyp/svp scf=(tight,noincore,xqc) Test 
#IOP(5/87=12) Density=Current Pop=(MK,readradii) iop(6/33=2) iop(6/42=6)

loop2.holoCaM.run53.water2 

   -2  1 
   C     52.81000000    68.08000000    -1.87000000
   C     51.96000000    68.94000000    -0.94000000
   O     52.41000000    69.98000000    -0.47000000
   H     53.78200000    67.90000000    -1.41000000
   H     52.30900000    67.12800000    -2.04400000
   H     52.94800000    68.59700000    -2.81900000
   N     50.69000000    68.62000000    -0.66000000
   C     49.83000000    69.45000000     0.15000000
   C     50.01000000    69.41000000     1.67000000
   O     49.78000000    68.38000000     2.30000000
   C     48.38000000    69.22000000    -0.25000000
   C     47.34000000    70.21000000     0.27000000
   O     46.13000000    70.17000000    -0.04000000
   O     47.72000000    71.10000000     1.06000000
   H     50.23000000    68.02000000    -1.32000000
   H     49.89000000    70.46000000    -0.25000000
   H     48.05000000    68.33000000     0.29000000
   H     48.12000000    68.98000000    -1.28000000
   N     50.28000000    70.55000000     2.31000000
   C     50.60000000    70.56000000     3.72000000
   C     49.37000000    70.46000000     4.62000000
   O     49.46000000    70.39000000     5.85000000
   C     51.43000000    71.82000000     3.93000000
   H     50.33000000    71.37000000     1.73000000
   H     51.32000000    69.77000000     3.93000000
   H     52.44000000    71.64000000     3.56000000
   H     50.99000000    72.61000000     3.32000000
   H     51.46000000    72.11000000     4.98000000
   N     48.17000000    70.73000000     4.12000000
   C     46.91000000    70.71000000     4.84000000
   C     45.87000000    69.79000000     4.21000000
   O     44.88000000    69.46000000     4.86000000
   C     46.42000000    72.14000000     5.02000000
   C     46.03000000    72.84000000     3.72000000
   O     44.90000000    72.62000000     3.24000000
   O     46.83000000    73.65000000     3.20000000
   H     48.19000000    70.87000000     3.12000000
   H     47.03000000    70.46000000     5.89000000
   H     47.07000000    72.77000000     5.63000000
   H     45.53000000    72.17000000     5.65000000
   N     46.11000000    69.20000000     3.04000000
   C     45.23000000    68.21000000     2.44000000
   C     43.98000000    68.69000000     1.72000000
   O     43.25000000    67.89000000     1.14000000
   H     46.89000000    69.50000000     2.48000000
   H     45.01000000    67.53000000     3.26000000
   H     45.71000000    67.59000000     1.69000000
   N     43.65000000    69.99000000     1.69000000
   C     42.40000000    70.44000000     1.12000000
   C     42.47000000    70.68000000    -0.38000000
   O     41.50000000    71.20000000    -0.93000000
   C     41.79000000    71.56000000     1.96000000
   C     41.42000000    71.26000000     3.40000000
   N     42.35000000    71.47000000     4.34000000
   O     40.28000000    70.89000000     3.69000000
   H     44.23000000    70.64000000     2.20000000
   H     41.65000000    69.65000000     1.25000000
   H     40.91000000    71.89000000     1.41000000
   H     42.43000000    72.43000000     2.05000000
   H     43.26000000    71.73000000     4.00000000
   H     42.07000000    71.15000000     5.26000000
   N     43.59000000    70.41000000    -1.05000000
   C     43.63000000    70.35000000    -2.50000000
   C     43.97000000    71.61000000    -3.28000000
   O     43.74000000    71.58000000    -4.49000000
   H     44.37000000    69.93000000    -0.62000000
   H     42.69000000    69.94000000    -2.86000000
   H     44.44000000    69.66000000    -2.72000000
   N     44.37000000    72.71000000    -2.64000000
   C     44.91000000    73.88000000    -3.30000000
   C     46.37000000    74.04000000    -2.89000000
   O     46.85000000    73.53000000    -1.88000000
   C     44.07000000    75.11000000    -2.96000000
   C     42.83000000    75.21000000    -3.84000000
   O     43.60000000    75.22000000    -1.64000000
   H     44.50000000    72.59000000    -1.64000000
   H     44.90000000    73.75000000    -4.38000000
   H     44.66000000    76.00000000    -3.20000000
   H     42.70000000    74.89000000    -1.61000000
   H     42.28000000    74.28000000    -3.66000000
   H     42.19000000    76.08000000    -3.74000000
   H     43.09000000    75.19000000    -4.90000000
   N     47.09000000    74.81000000    -3.71000000
   C     48.49000000    75.15000000    -3.60000000
   C     48.68000000    76.54000000    -2.99000000
   O     48.27000000    77.50000000    -3.64000000
   C     49.11000000    74.98000000    -4.98000000
   C     49.05000000    73.52000000    -5.44000000
   C     50.50000000    75.58000000    -5.08000000
   C     49.52000000    72.36000000    -4.56000000
   H     46.59000000    75.23000000    -4.47000000
   H     49.02000000    74.52000000    -2.88000000
   H     48.58000000    75.50000000    -5.78000000
   H     49.48000000    73.41000000    -6.43000000
   H     48.03000000    73.16000000    -5.60000000
   H     51.12000000    75.21000000    -4.26000000
   H     50.98000000    75.39000000    -6.04000000
   H     50.42000000    76.66000000    -4.93000000
   H     49.37000000    71.40000000    -5.07000000
   H     50.55000000    72.51000000    -4.25000000
   H     48.87000000    72.35000000    -3.69000000
   N     49.28000000    76.68000000    -1.81000000
   C     49.80000000    77.92000000    -1.26000000
   C     51.20000000    78.12000000    -1.83000000
   O     51.80000000    77.31000000    -2.53000000
   C     49.72000000    77.97000000     0.26000000
   C     48.40000000    77.51000000     0.86000000
   O     48.32000000    76.30000000     1.14000000
   O     47.55000000    78.34000000     1.27000000
   H     49.62000000    75.79000000    -1.48000000
   H     49.20000000    78.78000000    -1.55000000
   H     50.14000000    78.90000000     0.65000000
   H     50.38000000    77.16000000     0.60000000
   N     51.82000000    79.26000000    -1.53000000
   C     53.07000000    79.64000000    -2.16000000
   C     54.19000000    78.67000000    -1.84000000
   O     54.93000000    78.19000000    -2.71000000
   C     53.39000000    81.10000000    -1.85000000
   C     54.74000000    81.50000000    -2.38000000
   C     55.04000000    81.41000000    -3.75000000
   C     55.75000000    81.92000000    -1.50000000
   C     56.29000000    81.78000000    -4.24000000
   C     57.01000000    82.31000000    -1.96000000
   C     57.24000000    82.28000000    -3.34000000
   H     51.30000000    79.92000000    -0.96000000
   H     52.95000000    79.63000000    -3.25000000
   H     53.32000000    81.22000000    -0.77000000
   H     52.64000000    81.77000000    -2.27000000
   H     54.29000000    80.99000000    -4.40000000
   H     55.64000000    81.80000000    -0.43000000
   H     56.54000000    81.67000000    -5.29000000
   H     57.84000000    82.56000000    -1.33000000
   H     58.18000000    82.63000000    -3.74000000
   N     54.35000000    78.23000000    -0.59000000
   C     55.40000000    77.29000000    -0.28000000
   C     55.27000000    75.91000000    -0.90000000
   O     56.24000000    75.22000000    -1.18000000
   C     55.54000000    77.16000000     1.24000000
   C     55.02000000    78.53000000     1.67000000
   C     53.93000000    78.85000000     0.66000000
   H     56.36000000    77.58000000    -0.70000000
   H     54.91000000    76.33000000     1.56000000
   H     56.57000000    76.85000000     1.42000000
   H     54.65000000    78.44000000     2.70000000
   H     55.70000000    79.38000000     1.64000000
   H     52.99000000    78.37000000     0.94000000
   H     53.85000000    79.93000000     0.64000000
   N     54.02000000    75.56000000    -1.24000000
   C     53.63000000    74.29000000    -1.83000000
   C     53.83000000    74.32000000    -3.34000000
   O     54.28000000    73.33000000    -3.92000000
   C     52.15000000    74.04000000    -1.54000000
   C     51.83000000    73.70000000    -0.08000000
   C     50.33000000    73.66000000     0.16000000
   O     49.53000000    74.21000000    -0.63000000
   O     49.80000000    73.06000000     1.12000000
   H     53.32000000    76.27000000    -1.11000000
   H     54.26000000    73.53000000    -1.37000000
   H     51.97000000    73.19000000    -2.19000000
   H     51.53000000    74.86000000    -1.91000000
   H     52.32000000    74.46000000     0.54000000
   H     52.24000000    72.70000000     0.03000000
   N     53.75000000    75.49000000    -3.97000000
   C     54.26000000    75.80000000    -5.29000000
   H     55.28300000    75.43500000    -5.37900000
   H     53.63600000    75.31900000    -6.04300000
   H     54.24600000    76.87900000    -5.44100000
   H     53.46000000    76.30000000    -3.44000000
  Ca     47.45000000    73.80000000     0.68000000
   O     45.69000000    75.59000000     0.09000000
   H     45.36000000    76.44000000     0.37000000
   H     45.01000000    75.23000000    -0.48000000
   O     45.21000000    72.50000000     0.55000000
   H     45.43000000    71.59000000     0.38000000
   H     44.69000000    72.47000000     1.35000000

Ca 1.00



