%chk=loop4.holoCaM-CaMKII.run87.water2.chk
%nprocshared=20
%mem=10GB
%nosave
#b3lyp/svp scf=(tight,noincore,xqc) Test 
#IOP(5/87=12) Density=Current Pop=(MK,readradii) iop(6/33=2) iop(6/42=6)

loop4.holoCaM-CaMKII.run87.water2 

   -3  1 
   C     49.85000000    28.84000000     7.69000000
   C     49.12000000    28.90000000     9.02000000
   O     49.24000000    29.90000000     9.74000000
   H     50.85300000    28.44100000     7.84400000
   H     49.30400000    28.19300000     7.00400000
   H     49.91900000    29.84200000     7.26700000
   N     48.45000000    27.86000000     9.51000000
   C     47.66000000    27.89000000    10.73000000
   C     48.55000000    27.97000000    11.96000000
   O     49.30000000    27.03000000    12.21000000
   C     46.78000000    26.65000000    10.73000000
   C     45.84000000    26.48000000    11.91000000
   O     45.09000000    25.48000000    11.85000000
   O     45.80000000    27.42000000    12.73000000
   H     48.29000000    27.09000000     8.87000000
   H     47.04000000    28.79000000    10.75000000
   H     47.39000000    25.76000000    10.53000000
   H     46.19000000    26.77000000     9.82000000
   N     48.39000000    28.97000000    12.83000000
   C     49.30000000    29.34000000    13.90000000
   C     48.88000000    28.63000000    15.18000000
   O     49.59000000    28.81000000    16.16000000
   C     49.36000000    30.85000000    14.09000000
   C     48.14000000    31.54000000    14.68000000
   C     49.61000000    31.53000000    12.74000000
   C     48.40000000    32.76000000    15.56000000
   H     47.71000000    29.68000000    12.59000000
   H     50.32000000    29.05000000    13.63000000
   H     50.26000000    31.05000000    14.68000000
   H     47.62000000    30.87000000    15.37000000
   H     47.46000000    31.83000000    13.88000000
   H     49.78000000    32.59000000    12.94000000
   H     50.50000000    31.14000000    12.26000000
   H     48.71000000    31.42000000    12.13000000
   H     48.70000000    32.44000000    16.56000000
   H     49.21000000    33.37000000    15.16000000
   H     47.44000000    33.27000000    15.61000000
   N     47.71000000    28.00000000    15.25000000
   C     47.20000000    27.37000000    16.45000000
   C     46.68000000    25.95000000    16.34000000
   O     46.58000000    25.23000000    17.34000000
   C     46.23000000    28.26000000    17.23000000
   C     45.11000000    28.99000000    16.50000000
   O     44.67000000    28.55000000    15.42000000
   O     44.61000000    29.98000000    17.07000000
   H     47.19000000    27.94000000    14.38000000
   H     47.97000000    27.22000000    17.21000000
   H     46.92000000    28.98000000    17.68000000
   H     45.79000000    27.60000000    17.98000000
   N     46.42000000    25.53000000    15.10000000
   C     46.13000000    24.14000000    14.81000000
   C     44.66000000    23.75000000    14.81000000
   O     44.32000000    22.73000000    15.39000000
   H     46.50000000    26.14000000    14.30000000
   H     46.55000000    23.50000000    15.58000000
   H     46.57000000    23.93000000    13.83000000
   N     43.81000000    24.56000000    14.17000000
   C     42.39000000    24.27000000    14.19000000
   C     41.88000000    23.78000000    12.85000000
   O     40.77000000    23.24000000    12.88000000
   C     41.64000000    25.47000000    14.77000000
   C     41.47000000    26.56000000    13.72000000
   O     42.46000000    26.83000000    13.01000000
   O     40.41000000    27.22000000    13.60000000
   H     44.21000000    25.22000000    13.51000000
   H     42.14000000    23.40000000    14.79000000
   H     42.15000000    25.82000000    15.67000000
   H     40.69000000    25.13000000    15.20000000
   N     42.61000000    24.01000000    11.76000000
   C     42.29000000    23.60000000    10.40000000
   C     41.84000000    24.78000000     9.56000000
   O     41.16000000    24.55000000     8.57000000
   H     43.49000000    24.48000000    11.91000000
   H     41.40000000    22.97000000    10.44000000
   H     43.04000000    23.10000000     9.79000000
   N     42.17000000    26.01000000     9.97000000
   C     41.57000000    27.16000000     9.33000000
   C     42.55000000    28.33000000     9.36000000
   O     43.24000000    28.65000000    10.33000000
   C     40.32000000    27.63000000    10.07000000
   C     39.19000000    26.64000000    10.29000000
   C     37.95000000    27.21000000    10.98000000
   N     37.98000000    27.89000000    12.12000000
   O     36.84000000    27.09000000    10.47000000
   H     42.64000000    26.11000000    10.86000000
   H     41.29000000    26.94000000     8.30000000
   H     39.77000000    28.43000000     9.57000000
   H     40.63000000    28.18000000    10.96000000
   H     39.62000000    25.86000000    10.93000000
   H     38.92000000    26.19000000     9.34000000
   H     38.80000000    27.82000000    12.71000000
   H     37.16000000    28.32000000    12.52000000
   N     42.69000000    29.01000000     8.22000000
   C     43.62000000    30.12000000     8.07000000
   C     42.77000000    31.38000000     7.98000000
   O     42.08000000    31.56000000     6.97000000
   C     44.53000000    30.05000000     6.85000000
   C     45.63000000    31.11000000     6.98000000
   C     45.35000000    28.76000000     6.81000000
   H     42.22000000    28.82000000     7.35000000
   H     44.30000000    30.14000000     8.92000000
   H     43.98000000    30.24000000     5.93000000
   H     45.18000000    32.06000000     7.26000000
   H     46.25000000    30.76000000     7.79000000
   H     46.25000000    31.13000000     6.08000000
   H     44.72000000    27.87000000     6.82000000
   H     46.00000000    28.75000000     5.93000000
   H     45.89000000    28.63000000     7.75000000
   N     42.93000000    32.23000000     8.99000000
   C     42.29000000    33.53000000     9.08000000
   C     42.94000000    34.53000000     8.14000000
   O     44.11000000    34.31000000     7.84000000
   C     42.47000000    34.02000000    10.51000000
   C     41.89000000    35.40000000    10.79000000
   N     40.67000000    35.72000000    10.36000000
   O     42.57000000    36.24000000    11.37000000
   H     43.62000000    31.95000000     9.67000000
   H     41.23000000    33.54000000     8.82000000
   H     43.51000000    34.10000000    10.83000000
   H     41.89000000    33.37000000    11.16000000
   H     40.05000000    35.07000000     9.90000000
   H     40.46000000    36.71000000    10.32000000
   N     42.27000000    35.60000000     7.69000000
   C     42.87000000    36.73000000     7.02000000
   C     44.14000000    37.27000000     7.66000000
   O     45.10000000    37.52000000     6.93000000
   C     41.89000000    37.89000000     6.88000000
   C     42.30000000    39.10000000     6.07000000
   C     42.23000000    39.16000000     4.67000000
   C     42.93000000    40.16000000     6.73000000
   C     42.87000000    40.15000000     3.91000000
   C     43.53000000    41.20000000     6.01000000
   C     43.47000000    41.22000000     4.60000000
   O     43.84000000    42.30000000     3.87000000
   H     41.26000000    35.62000000     7.75000000
   H     43.19000000    36.44000000     6.02000000
   H     41.63000000    38.17000000     7.90000000
   H     40.94000000    37.60000000     6.44000000
   H     41.72000000    38.43000000     4.07000000
   H     42.99000000    40.16000000     7.81000000
   H     42.77000000    40.03000000     2.84000000
   H     44.11000000    41.95000000     6.54000000
   H     44.16000000    42.97000000     4.48000000
   N     44.20000000    37.37000000     8.99000000
   C     45.43000000    37.72000000     9.66000000
   C     46.52000000    36.66000000     9.60000000
   O     47.68000000    36.97000000     9.33000000
   C     45.09000000    38.03000000    11.12000000
   C     46.18000000    38.89000000    11.75000000
   C     45.70000000    39.52000000    13.04000000
   O     45.06000000    40.58000000    12.83000000
   O     45.96000000    39.06000000    14.17000000
   H     43.39000000    37.10000000     9.53000000
   H     45.79000000    38.62000000     9.18000000
   H     44.95000000    37.13000000    11.72000000
   H     44.16000000    38.59000000    11.11000000
   H     46.39000000    39.64000000    10.98000000
   H     47.05000000    38.25000000    11.92000000
   N     46.15000000    35.38000000     9.73000000
   C     47.07000000    34.29000000     9.48000000
   C     47.49000000    34.15000000     8.02000000
   O     48.64000000    33.80000000     7.75000000
   C     46.48000000    32.97000000     9.96000000
   C     46.06000000    32.85000000    11.42000000
   C     45.36000000    31.51000000    11.58000000
   O     45.97000000    30.54000000    12.07000000
   O     44.13000000    31.41000000    11.37000000
   H     45.18000000    35.14000000     9.87000000
   H     47.98000000    34.57000000    10.02000000
   H     47.26000000    32.22000000     9.90000000
   H     45.67000000    32.60000000     9.33000000
   H     45.46000000    33.69000000    11.78000000
   H     46.97000000    32.85000000    12.02000000
   N     46.72000000    34.59000000     7.02000000
   C     47.08000000    34.78000000     5.63000000
   H     48.11600000    34.47600000     5.47900000
   H     46.42800000    34.17500000     4.99900000
   H     46.96900000    35.83200000     5.36600000
   H     45.73000000    34.65000000     7.23000000
  Ca     43.95000000    29.12000000    13.01000000
   O     44.31000000    31.36000000    14.62000000
   H     44.57000000    30.93000000    15.43000000
   H     44.48000000    32.29000000    14.78000000
   O     41.40000000    29.70000000    13.57000000
   H     40.79000000    30.31000000    13.99000000
   H     41.07000000    28.83000000    13.80000000

Ca 1.00



