%chk=loop3.apoCaM-CA-Ng.Init293.run2.water6.chk
%nprocshared=20
%mem=10GB
%nosave
#b3lyp/svp scf=(tight,noincore,xqc) Test 
#IOP(5/87=12) Density=Current Pop=(MK,readradii) iop(6/33=2) iop(6/42=6)

loop3.apoCaM-CA-Ng.Init293.run2.water6 

   0  1 
   C     59.17000000    62.37000000    43.98000000
   C     58.73000000    63.03000000    45.28000000
   O     57.83000000    63.87000000    45.23000000
   H     60.19300000    62.01000000    44.08400000
   H     58.51100000    61.53100000    43.75700000
   H     59.12200000    63.09600000    43.16900000
   N     59.27000000    62.59000000    46.42000000
   C     58.72000000    62.82000000    47.74000000
   C     58.64000000    64.25000000    48.24000000
   O     59.08000000    65.22000000    47.62000000
   C     57.45000000    61.97000000    47.83000000
   C     57.68000000    60.51000000    47.46000000
   O     57.77000000    60.15000000    46.27000000
   O     57.74000000    59.73000000    48.43000000
   H     60.03000000    61.95000000    46.27000000
   H     59.32000000    62.34000000    48.52000000
   H     56.72000000    62.33000000    47.10000000
   H     56.95000000    61.95000000    48.80000000
   N     58.23000000    64.35000000    49.51000000
   C     58.33000000    65.56000000    50.31000000
   C     59.15000000    65.50000000    51.59000000
   O     60.32000000    65.14000000    51.56000000
   C     56.97000000    66.26000000    50.34000000
   C     55.82000000    65.69000000    51.17000000
   C     55.65000000    64.20000000    51.42000000
   C     54.77000000    63.84000000    52.62000000
   N     55.33000000    64.31000000    53.89000000
   H     58.14000000    63.48000000    50.01000000
   H     58.91000000    66.38000000    49.89000000
   H     56.63000000    66.35000000    49.31000000
   H     57.20000000    67.25000000    50.74000000
   H     54.94000000    65.90000000    50.57000000
   H     55.82000000    66.28000000    52.09000000
   H     56.62000000    63.80000000    51.73000000
   H     55.35000000    63.64000000    50.54000000
   H     54.68000000    62.76000000    52.59000000
   H     53.82000000    64.36000000    52.50000000
   H     55.34000000    65.31000000    54.04000000
   H     54.68000000    63.98000000    54.60000000
   H     56.16000000    63.80000000    54.17000000
   N     58.57000000    65.88000000    52.73000000
   C     59.15000000    65.75000000    54.06000000
   C     58.76000000    64.41000000    54.68000000
   O     57.95000000    63.63000000    54.19000000
   C     58.83000000    66.97000000    54.91000000
   C     57.35000000    67.25000000    55.13000000
   O     57.12000000    68.37000000    55.64000000
   O     56.44000000    66.43000000    54.89000000
   H     57.65000000    66.28000000    52.74000000
   H     60.23000000    65.71000000    53.93000000
   H     59.40000000    67.81000000    54.51000000
   H     59.48000000    66.83000000    55.77000000
   N     59.32000000    64.06000000    55.84000000
   C     59.26000000    62.79000000    56.53000000
   C     58.21000000    62.69000000    57.62000000
   O     57.83000000    63.62000000    58.33000000
   H     59.84000000    64.83000000    56.23000000
   H     60.17000000    62.70000000    57.12000000
   H     59.30000000    61.97000000    55.81000000
   N     57.78000000    61.43000000    57.78000000
   C     56.69000000    61.08000000    58.67000000
   C     56.85000000    59.79000000    59.47000000
   O     55.92000000    59.34000000    60.13000000
   C     55.37000000    61.05000000    57.90000000
   C     54.88000000    62.25000000    57.09000000
   N     54.53000000    63.41000000    57.65000000
   O     54.90000000    62.19000000    55.87000000
   H     58.01000000    60.80000000    57.03000000
   H     56.65000000    61.78000000    59.50000000
   H     54.54000000    60.80000000    58.57000000
   H     55.37000000    60.31000000    57.11000000
   H     54.52000000    63.47000000    58.66000000
   H     54.28000000    64.14000000    57.00000000
   N     58.00000000    59.12000000    59.43000000
   C     58.12000000    57.86000000    60.13000000
   C     57.63000000    56.62000000    59.40000000
   O     57.61000000    56.65000000    58.17000000
   H     58.77000000    59.50000000    58.89000000
   H     57.65000000    57.87000000    61.12000000
   H     59.19000000    57.74000000    60.31000000
   N     57.18000000    55.60000000    60.14000000
   C     56.32000000    54.54000000    59.65000000
   C     55.02000000    54.90000000    58.95000000
   O     54.11000000    54.08000000    58.84000000
   C     57.21000000    53.66000000    58.78000000
   C     58.44000000    53.18000000    59.50000000
   C     58.28000000    52.29000000    60.57000000
   C     59.74000000    53.60000000    59.19000000
   C     59.36000000    51.79000000    61.30000000
   C     60.85000000    52.99000000    59.79000000
   C     60.67000000    52.11000000    60.88000000
   O     61.81000000    51.58000000    61.41000000
   H     57.29000000    55.62000000    61.14000000
   H     56.04000000    53.92000000    60.51000000
   H     57.55000000    54.23000000    57.91000000
   H     56.71000000    52.82000000    58.30000000
   H     57.24000000    52.05000000    60.77000000
   H     59.82000000    54.18000000    58.28000000
   H     59.24000000    51.05000000    62.07000000
   H     61.85000000    53.17000000    59.42000000
   H     62.62000000    51.84000000    60.97000000
   N     54.91000000    56.10000000    58.37000000
   C     53.78000000    56.78000000    57.77000000
   C     52.55000000    56.86000000    58.67000000
   O     52.09000000    58.00000000    58.77000000
   C     53.54000000    56.31000000    56.34000000
   C     54.77000000    56.20000000    55.43000000
   C     52.54000000    57.23000000    55.64000000
   C     55.57000000    57.47000000    55.21000000
   H     55.70000000    56.72000000    58.39000000
   H     54.09000000    57.82000000    57.63000000
   H     53.03000000    55.35000000    56.34000000
   H     54.50000000    55.74000000    54.47000000
   H     55.51000000    55.54000000    55.88000000
   H     52.95000000    58.24000000    55.72000000
   H     52.42000000    57.02000000    54.58000000
   H     51.61000000    57.27000000    56.20000000
   H     56.29000000    57.28000000    54.41000000
   H     55.01000000    58.33000000    54.84000000
   H     55.97000000    57.92000000    56.13000000
   N     51.95000000    55.90000000    59.38000000
   C     50.77000000    56.05000000    60.21000000
   C     49.62000000    56.69000000    59.45000000
   O     48.69000000    57.35000000    59.92000000
   C     50.41000000    54.66000000    60.73000000
   O     50.40000000    53.69000000    59.70000000
   H     52.28000000    54.98000000    59.14000000
   H     50.92000000    56.63000000    61.12000000
   H     49.47000000    54.72000000    61.27000000
   H     51.11000000    54.31000000    61.49000000
   H     50.17000000    52.79000000    59.92000000
   N     49.70000000    56.59000000    58.12000000
   C     48.82000000    57.07000000    57.08000000
   C     48.73000000    58.59000000    57.00000000
   O     47.82000000    59.12000000    56.38000000
   C     47.41000000    56.49000000    57.24000000
   H     50.42000000    55.97000000    57.77000000
   H     49.29000000    56.70000000    56.17000000
   H     47.44000000    55.46000000    57.60000000
   H     46.72000000    57.09000000    57.83000000
   H     46.86000000    56.42000000    56.30000000
   N     49.66000000    59.34000000    57.60000000
   C     49.85000000    60.76000000    57.40000000
   C     50.34000000    61.18000000    56.02000000
   O     51.32000000    60.68000000    55.48000000
   C     50.70000000    61.35000000    58.52000000
   H     50.31000000    58.90000000    58.23000000
   H     48.87000000    61.19000000    57.59000000
   H     50.75000000    62.44000000    58.49000000
   H     50.43000000    61.14000000    59.55000000
   H     51.70000000    60.92000000    58.44000000
   N     49.63000000    62.18000000    55.48000000
   C     50.09000000    62.87000000    54.29000000
   C     49.96000000    62.11000000    52.97000000
   O     50.85000000    62.25000000    52.13000000
   C     51.41000000    63.62000000    54.46000000
   C     51.44000000    64.42000000    55.76000000
   C     52.50000000    65.51000000    55.78000000
   O     52.14000000    66.70000000    55.95000000
   O     53.71000000    65.24000000    55.62000000
   H     48.81000000    62.57000000    55.91000000
   H     49.29000000    63.60000000    54.18000000
   H     51.36000000    64.42000000    53.73000000
   H     52.35000000    63.08000000    54.39000000
   H     51.55000000    63.78000000    56.64000000
   H     50.45000000    64.82000000    55.96000000
   N     48.89000000    61.32000000    52.90000000
   C     48.63000000    60.35000000    51.86000000
   H     47.80500000    60.69700000    51.23800000
   H     49.52100000    60.22800000    51.24500000
   H     48.36700000    59.39400000    52.31200000
   H     48.21000000    61.41000000    53.64000000
  Ca     54.47000000    67.81000000    56.35000000
   O     55.20000000    70.22000000    55.12000000
   H     56.12000000    69.97000000    55.23000000
   H     55.23000000    71.10000000    54.76000000
   O     52.65000000    69.66000000    56.65000000
   H     52.97000000    70.53000000    56.87000000
   H     51.74000000    69.79000000    56.40000000
   O     55.79000000    69.17000000    58.14000000
   H     55.94000000    68.98000000    59.07000000
   H     55.94000000    70.11000000    58.06000000
   O     53.12000000    67.33000000    58.66000000
   H     52.19000000    67.14000000    58.54000000
   H     53.28000000    67.19000000    59.59000000
   O     56.13000000    66.22000000    58.11000000
   H     56.20000000    65.28000000    57.97000000
   H     57.01000000    66.48000000    58.41000000
   O     53.74000000    68.03000000    53.74000000
   H     54.29000000    68.51000000    53.12000000
   H     53.16000000    67.51000000    53.19000000

Ca 1.00



