%chk=loop2.apoCaM-CA-Ng.Init295.run98.water4.chk
%nprocshared=20
%mem=10GB
%nosave
#b3lyp/svp scf=(tight,noincore,xqc) Test 
#IOP(5/87=12) Density=Current Pop=(MK,readradii) iop(6/33=2) iop(6/42=6)

loop2.apoCaM-CA-Ng.Init295.run98.water4 

   -2  1 
   C     11.96000000    97.07000000    39.51000000
   C     12.53000000    98.46000000    39.28000000
   O     12.66000000    98.90000000    38.14000000
   H     10.98800000    96.99100000    39.02300000
   H     12.63700000    96.32500000    39.09100000
   H     11.84500000    96.89600000    40.58000000
   N     13.05000000    99.19000000    40.26000000
   C     13.78000000   100.44000000    40.12000000
   C     12.82000000   101.58000000    39.78000000
   O     13.33000000   102.67000000    39.53000000
   C     14.61000000   100.78000000    41.35000000
   C     15.69000000   101.82000000    41.08000000
   O     15.61000000   102.92000000    41.67000000
   O     16.68000000   101.43000000    40.43000000
   H     13.00000000    98.77000000    41.18000000
   H     14.50000000   100.38000000    39.31000000
   H     15.00000000    99.85000000    41.78000000
   H     13.90000000   101.19000000    42.07000000
   N     11.51000000   101.37000000    39.73000000
   C     10.53000000   102.27000000    39.15000000
   C      9.11000000   101.92000000    39.57000000
   O      8.81000000   100.86000000    40.10000000
   C     10.83000000   102.16000000    37.66000000
   H     11.19000000   100.50000000    40.15000000
   H     10.80000000   103.25000000    39.53000000
   H     11.89000000   102.29000000    37.43000000
   H     10.50000000   101.20000000    37.27000000
   H     10.22000000   102.87000000    37.10000000
   N      8.15000000   102.85000000    39.54000000
   C      8.11000000   104.18000000    38.96000000
   C      8.47000000   105.23000000    40.00000000
   O      9.15000000   106.18000000    39.60000000
   C      6.71000000   104.53000000    38.46000000
   C      6.71000000   105.79000000    37.62000000
   O      7.68000000   106.10000000    36.89000000
   O      5.64000000   106.43000000    37.50000000
   H      7.29000000   102.41000000    39.82000000
   H      8.82000000   104.23000000    38.13000000
   H      6.02000000   104.54000000    39.30000000
   H      6.39000000   103.70000000    37.83000000
   N      8.16000000   105.19000000    41.30000000
   C      8.88000000   105.96000000    42.30000000
   C     10.29000000   105.45000000    42.61000000
   O     10.79000000   104.45000000    42.11000000
   H      7.77000000   104.30000000    41.55000000
   H      8.34000000   105.72000000    43.21000000
   H      8.91000000   107.03000000    42.09000000
   N     11.07000000   106.11000000    43.47000000
   C     10.63000000   107.17000000    44.36000000
   C      9.67000000   106.74000000    45.46000000
   O      9.76000000   105.62000000    45.96000000
   C     11.90000000   107.86000000    44.84000000
   C     12.35000000   108.95000000    43.89000000
   N     11.75000000   110.14000000    43.99000000
   O     13.21000000   108.78000000    43.02000000
   H     11.98000000   105.72000000    43.65000000
   H     10.03000000   107.81000000    43.71000000
   H     12.70000000   107.12000000    44.80000000
   H     11.91000000   108.24000000    45.86000000
   H     10.97000000   110.34000000    44.60000000
   H     12.16000000   110.91000000    43.48000000
   N      8.83000000   107.70000000    45.85000000
   C      7.87000000   107.49000000    46.91000000
   C      6.40000000   107.52000000    46.53000000
   O      5.57000000   107.38000000    47.43000000
   H      8.84000000   108.59000000    45.37000000
   H      7.98000000   108.25000000    47.68000000
   H      8.00000000   106.49000000    47.32000000
   N      6.03000000   107.75000000    45.26000000
   C      4.72000000   107.48000000    44.71000000
   C      4.63000000   106.43000000    43.62000000
   O      5.46000000   106.39000000    42.72000000
   C      4.22000000   108.84000000    44.23000000
   C      3.85000000   109.82000000    45.34000000
   O      5.18000000   109.41000000    43.37000000
   H      6.76000000   107.84000000    44.57000000
   H      3.98000000   107.25000000    45.47000000
   H      3.37000000   108.64000000    43.57000000
   H      4.84000000   110.27000000    43.11000000
   H      3.28000000   109.20000000    46.04000000
   H      4.75000000   110.05000000    45.90000000
   H      3.21000000   110.56000000    44.86000000
   N      3.53000000   105.68000000    43.68000000
   C      3.05000000   105.10000000    42.44000000
   C      1.55000000   105.12000000    42.17000000
   O      0.83000000   105.33000000    43.14000000
   C      3.53000000   103.66000000    42.41000000
   C      5.01000000   103.29000000    42.33000000
   C      2.93000000   102.87000000    43.57000000
   C      5.36000000   101.81000000    42.21000000
   H      2.89000000   105.85000000    44.44000000
   H      3.47000000   105.60000000    41.56000000
   H      3.05000000   103.27000000    41.51000000
   H      5.61000000   103.79000000    43.10000000
   H      5.41000000   103.71000000    41.41000000
   H      3.56000000   102.52000000    44.38000000
   H      2.04000000   103.31000000    44.03000000
   H      2.65000000   101.92000000    43.11000000
   H      6.39000000   101.67000000    41.88000000
   H      5.29000000   101.34000000    43.19000000
   H      4.64000000   101.28000000    41.59000000
   N      1.07000000   104.97000000    40.93000000
   C     -0.34000000   104.99000000    40.59000000
   C     -0.68000000   103.96000000    39.53000000
   O      0.13000000   103.60000000    38.67000000
   C     -0.72000000   106.39000000    40.12000000
   C      0.31000000   106.96000000    39.15000000
   O      1.25000000   107.65000000    39.61000000
   O      0.16000000   106.76000000    37.93000000
   H      1.70000000   104.99000000    40.14000000
   H     -1.03000000   104.79000000    41.41000000
   H     -0.77000000   106.93000000    41.06000000
   H     -1.70000000   106.45000000    39.66000000
   N     -1.93000000   103.49000000    39.50000000
   C     -2.48000000   102.44000000    38.67000000
   C     -1.68000000   101.20000000    38.29000000
   O     -1.27000000   100.45000000    39.17000000
   C     -3.82000000   102.00000000    39.26000000
   C     -4.72000000   101.24000000    38.31000000
   C     -4.78000000    99.84000000    38.36000000
   C     -5.49000000   101.90000000    37.35000000
   C     -5.50000000    99.13000000    37.40000000
   C     -6.25000000   101.19000000    36.41000000
   C     -6.30000000    99.79000000    36.46000000
   H     -2.49000000   103.87000000    40.24000000
   H     -2.65000000   102.91000000    37.70000000
   H     -4.47000000   102.78000000    39.65000000
   H     -3.59000000   101.39000000    40.13000000
   H     -4.13000000    99.34000000    39.07000000
   H     -5.35000000   102.96000000    37.22000000
   H     -5.48000000    98.06000000    37.54000000
   H     -6.68000000   101.71000000    35.57000000
   H     -6.89000000    99.25000000    35.73000000
   N     -1.37000000   100.91000000    37.03000000
   C     -0.56000000    99.74000000    36.74000000
   C      0.84000000    99.70000000    37.33000000
   O      1.49000000    98.67000000    37.17000000
   C     -0.64000000    99.68000000    35.22000000
   C     -1.88000000   100.49000000    34.84000000
   C     -1.77000000   101.64000000    35.84000000
   H     -1.13000000    98.94000000    37.22000000
   H      0.23000000   100.19000000    34.81000000
   H     -0.73000000    98.64000000    34.91000000
   H     -1.85000000   100.92000000    33.84000000
   H     -2.82000000    99.96000000    35.00000000
   H     -0.88000000   102.20000000    35.56000000
   H     -2.77000000   102.06000000    35.89000000
   N      1.32000000   100.83000000    37.86000000
   C      2.63000000   100.86000000    38.49000000
   C      2.69000000    99.95000000    39.70000000
   O      3.61000000    99.15000000    39.87000000
   C      2.97000000   102.31000000    38.82000000
   C      3.07000000   103.28000000    37.64000000
   C      2.87000000   104.73000000    38.05000000
   O      2.46000000   105.53000000    37.18000000
   O      3.16000000   105.24000000    39.16000000
   H      0.79000000   101.69000000    37.91000000
   H      3.34000000   100.62000000    37.70000000
   H      3.95000000   102.29000000    39.28000000
   H      2.24000000   102.70000000    39.53000000
   H      2.38000000   103.06000000    36.83000000
   H      4.02000000   103.09000000    37.13000000
   N      1.60000000    99.90000000    40.48000000
   C      1.42000000    98.92000000    41.53000000
   H      0.38500000    98.57800000    41.53300000
   H      2.08200000    98.07200000    41.35400000
   H      1.65500000    99.37200000    42.49400000
   H      0.91000000   100.60000000    40.27000000
  Ca      3.57000000   107.82400000    38.52000000
   O      5.82000000   110.04400000    38.88000000
   H      6.40000000   109.55400000    39.46000000
   H      6.36000000   110.24400000    38.11000000
   O      4.43000000   109.18400000    36.45000000
   H      4.08000000   109.86400000    35.88000000
   H      5.24000000   108.90400000    36.02000000
   O      5.48000000   107.51400000    40.39000000
   H      6.34000000   107.69400000    40.77000000
   H      5.08000000   106.88400000    40.99000000
   O      3.46000000   110.09400000    40.20000000
   H      3.28000000   110.82400000    40.80000000
   H      4.36000000   110.25400000    39.89000000

Ca 1.00



