%chk=loop4.apoCaM-CA-Ng.Init31.run91.water4.chk
%nprocshared=20
%mem=10GB
%nosave
#b3lyp/svp scf=(tight,noincore,xqc) Test 
#IOP(5/87=12) Density=Current Pop=(MK,readradii) iop(6/33=2) iop(6/42=6)

loop4.apoCaM-CA-Ng.Init31.run91.water4 

   -3  1 
   C     68.45000000    53.64000000    60.24000000
   C     68.69000000    54.05000000    58.80000000
   O     67.80000000    54.63000000    58.18000000
   H     67.40400000    53.36200000    60.36800000
   H     69.08500000    52.78900000    60.48700000
   H     68.68700000    54.47400000    60.90000000
   N     69.87000000    54.03000000    58.17000000
   C     71.25000000    54.04000000    58.60000000
   C     71.55000000    55.27000000    59.45000000
   O     72.46000000    55.29000000    60.28000000
   C     72.27000000    53.89000000    57.48000000
   C     73.69000000    53.80000000    58.04000000
   O     74.64000000    54.46000000    57.57000000
   O     73.94000000    53.01000000    58.97000000
   H     69.77000000    54.16000000    57.18000000
   H     71.45000000    53.21000000    59.28000000
   H     72.28000000    54.69000000    56.74000000
   H     72.04000000    52.95000000    56.97000000
   N     70.87000000    56.41000000    59.26000000
   C     70.92000000    57.51000000    60.19000000
   C     71.70000000    58.73000000    59.73000000
   O     72.46000000    59.37000000    60.46000000
   C     69.49000000    57.81000000    60.66000000
   C     69.25000000    58.92000000    61.67000000
   C     68.55000000    57.98000000    59.47000000
   C     69.89000000    58.64000000    63.02000000
   H     70.15000000    56.41000000    58.56000000
   H     71.39000000    57.13000000    61.10000000
   H     69.05000000    56.87000000    60.99000000
   H     68.18000000    58.93000000    61.89000000
   H     69.58000000    59.91000000    61.34000000
   H     68.78000000    58.85000000    58.86000000
   H     68.63000000    57.19000000    58.72000000
   H     67.54000000    58.02000000    59.88000000
   H     70.97000000    58.70000000    62.87000000
   H     69.49000000    59.39000000    63.70000000
   H     69.52000000    57.70000000    63.44000000
   N     71.51000000    59.16000000    58.48000000
   C     72.08000000    60.38000000    57.93000000
   C     73.43000000    60.15000000    57.28000000
   O     74.08000000    61.09000000    56.81000000
   C     71.00000000    60.94000000    57.01000000
   C     71.29000000    62.40000000    56.71000000
   O     70.75000000    63.29000000    57.40000000
   O     71.84000000    62.57000000    55.60000000
   H     70.82000000    58.66000000    57.93000000
   H     72.30000000    61.06000000    58.75000000
   H     69.99000000    60.77000000    57.40000000
   H     71.03000000    60.36000000    56.09000000
   N     73.92000000    58.91000000    57.36000000
   C     75.09000000    58.25000000    56.82000000
   C     75.41000000    58.59000000    55.37000000
   O     74.49000000    58.72000000    54.56000000
   H     73.32000000    58.27000000    57.87000000
   H     74.98000000    57.17000000    56.85000000
   H     75.98000000    58.49000000    57.40000000
   N     76.68000000    58.57000000    54.96000000
   C     77.01000000    58.63000000    53.55000000
   C     77.31000000    60.08000000    53.20000000
   O     77.73000000    60.81000000    54.09000000
   C     78.22000000    57.74000000    53.28000000
   C     79.52000000    58.07000000    54.01000000
   O     79.62000000    57.61000000    55.17000000
   O     80.31000000    58.82000000    53.40000000
   H     77.46000000    58.32000000    55.55000000
   H     76.20000000    58.25000000    52.93000000
   H     78.46000000    57.79000000    52.21000000
   H     77.88000000    56.75000000    53.57000000
   N     77.05000000    60.55000000    51.98000000
   C     76.43000000    59.87000000    50.86000000
   C     76.42000000    60.77000000    49.63000000
   O     76.10000000    61.95000000    49.62000000
   H     77.44000000    61.48000000    51.88000000
   H     75.39000000    59.76000000    51.18000000
   H     76.89000000    58.89000000    50.75000000
   N     76.90000000    60.28000000    48.48000000
   C     77.36000000    58.97000000    48.07000000
   C     76.27000000    57.94000000    48.31000000
   O     75.20000000    58.28000000    48.83000000
   C     78.79000000    58.63000000    48.47000000
   C     79.82000000    59.72000000    48.17000000
   C     79.76000000    60.91000000    49.12000000
   N     80.05000000    60.65000000    50.40000000
   O     79.30000000    61.99000000    48.76000000
   H     76.72000000    60.93000000    47.73000000
   H     77.57000000    59.05000000    47.01000000
   H     79.15000000    57.76000000    47.93000000
   H     78.70000000    58.52000000    49.55000000
   H     79.82000000    60.09000000    47.14000000
   H     80.82000000    59.30000000    48.28000000
   H     80.49000000    59.81000000    50.73000000
   H     79.81000000    61.36000000    51.07000000
   N     76.58000000    56.71000000    47.89000000
   C     75.72000000    55.56000000    48.10000000
   C     75.91000000    54.53000000    47.00000000
   O     77.03000000    54.25000000    46.58000000
   C     75.93000000    54.94000000    49.48000000
   C     75.51000000    55.79000000    50.67000000
   C     77.37000000    54.54000000    49.81000000
   H     77.47000000    56.55000000    47.45000000
   H     74.68000000    55.89000000    48.03000000
   H     75.31000000    54.05000000    49.39000000
   H     74.48000000    56.14000000    50.55000000
   H     75.56000000    55.16000000    51.56000000
   H     76.10000000    56.70000000    50.72000000
   H     77.35000000    53.93000000    50.72000000
   H     77.60000000    53.90000000    48.96000000
   H     78.02000000    55.41000000    49.84000000
   N     74.84000000    53.86000000    46.57000000
   C     74.90000000    52.78000000    45.60000000
   C     75.20000000    51.39000000    46.13000000
   O     75.14000000    50.42000000    45.38000000
   C     73.63000000    52.92000000    44.76000000
   C     73.83000000    52.52000000    43.31000000
   N     74.08000000    51.25000000    42.97000000
   O     73.73000000    53.38000000    42.44000000
   H     73.96000000    54.13000000    46.98000000
   H     75.72000000    53.14000000    44.98000000
   H     73.31000000    53.96000000    44.79000000
   H     72.77000000    52.38000000    45.16000000
   H     74.01000000    50.56000000    43.70000000
   H     74.01000000    51.05000000    41.98000000
   N     75.51000000    51.25000000    47.42000000
   C     75.96000000    50.02000000    48.03000000
   C     75.60000000    50.10000000    49.51000000
   O     75.78000000    51.14000000    50.14000000
   C     77.46000000    49.87000000    47.76000000
   C     78.43000000    50.57000000    48.69000000
   C     78.93000000    49.90000000    49.81000000
   C     78.98000000    51.81000000    48.33000000
   C     79.86000000    50.56000000    50.64000000
   C     79.99000000    52.39000000    49.09000000
   C     80.42000000    51.81000000    50.30000000
   O     81.30000000    52.50000000    51.08000000
   H     75.42000000    52.04000000    48.04000000
   H     75.43000000    49.20000000    47.55000000
   H     77.63000000    50.23000000    46.75000000
   H     77.65000000    48.80000000    47.82000000
   H     78.61000000    48.92000000    50.13000000
   H     78.54000000    52.33000000    47.49000000
   H     80.20000000    50.17000000    51.58000000
   H     80.39000000    53.38000000    48.90000000
   H     81.51000000    52.04000000    51.90000000
   N     75.13000000    48.99000000    50.08000000
   C     74.82000000    48.82000000    51.49000000
   C     73.51000000    49.50000000    51.86000000
   O     72.50000000    49.43000000    51.15000000
   C     74.82000000    47.34000000    51.84000000
   C     74.95000000    47.13000000    53.35000000
   C     75.36000000    45.70000000    53.63000000
   O     74.49000000    44.85000000    53.93000000
   O     76.57000000    45.39000000    53.69000000
   H     75.12000000    48.19000000    49.47000000
   H     75.59000000    49.34000000    52.07000000
   H     75.72000000    46.90000000    51.40000000
   H     73.99000000    46.78000000    51.42000000
   H     74.03000000    47.37000000    53.87000000
   H     75.72000000    47.83000000    53.70000000
   N     73.50000000    50.28000000    52.94000000
   C     72.33000000    50.69000000    53.68000000
   C     71.67000000    51.96000000    53.17000000
   O     71.01000000    52.74000000    53.85000000
   C     72.68000000    50.84000000    55.16000000
   C     73.29000000    49.60000000    55.82000000
   C     73.62000000    49.93000000    57.27000000
   O     74.78000000    50.19000000    57.65000000
   O     72.67000000    50.17000000    58.05000000
   H     74.38000000    50.48000000    53.40000000
   H     71.53000000    49.95000000    53.56000000
   H     71.73000000    51.01000000    55.67000000
   H     73.41000000    51.63000000    55.28000000
   H     74.21000000    49.33000000    55.30000000
   H     72.52000000    48.84000000    55.88000000
   N     71.84000000    52.22000000    51.87000000
   C     71.30000000    53.40000000    51.23000000
   H     70.37500000    53.69100000    51.72700000
   H     72.02100000    54.21400000    51.30000000
   H     71.09500000    53.18400000    50.18100000
   H     72.29000000    51.57000000    51.24000000
  Ca     74.16000000    50.81000000    60.19000000
   O     75.63000000    49.20000000    61.75000000
   H     76.57000000    49.15000000    61.55000000
   H     75.59000000    49.25000000    62.70000000
   O     73.47000000    48.10000000    60.10000000
   H     72.98000000    47.52000000    59.52000000
   H     73.38000000    47.70000000    60.97000000
   O     77.03000000    51.47000000    59.81000000
   H     77.32000000    52.19000000    59.24000000
   H     77.83000000    51.04000000    60.09000000
   O     74.85000000    52.74000000    61.77000000
   H     75.13000000    52.92000000    62.67000000
   H     74.84000000    53.60000000    61.35000000

Ca 1.00



