%chk=loop3.holoCaM-CaMKII.run9.water2.chk
%nprocshared=20
%mem=10GB
%nosave
#b3lyp/svp scf=(tight,noincore,xqc) Test 
#IOP(5/87=12) Density=Current Pop=(MK,readradii) iop(6/33=2) iop(6/42=6)

loop3.holoCaM-CaMKII.run9.water2 

   0  1 
   C     75.53000000    57.07000000    28.73000000
   C     75.18000000    55.66000000    28.28000000
   O     76.10000000    54.86000000    28.42000000
   H     76.44200000    57.39500000    28.23000000
   H     74.71500000    57.74700000    28.47300000
   H     75.68500000    57.08000000    29.80900000
   N     73.96000000    55.33000000    27.86000000
   C     73.78000000    54.06000000    27.19000000
   C     74.40000000    54.27000000    25.82000000
   O     73.92000000    55.10000000    25.05000000
   C     72.30000000    53.69000000    27.10000000
   C     72.06000000    52.29000000    26.54000000
   O     70.89000000    51.87000000    26.46000000
   O     73.00000000    51.61000000    26.09000000
   H     73.15000000    55.94000000    27.91000000
   H     74.22000000    53.21000000    27.71000000
   H     71.77000000    54.39000000    26.46000000
   H     71.74000000    53.86000000    28.01000000
   N     75.46000000    53.50000000    25.58000000
   C     76.22000000    53.50000000    24.34000000
   C     75.54000000    52.79000000    23.17000000
   O     75.82000000    52.98000000    21.99000000
   C     77.52000000    52.85000000    24.78000000
   C     78.55000000    53.10000000    23.69000000
   C     79.96000000    52.71000000    24.14000000
   C     81.07000000    52.99000000    23.13000000
   N     81.91000000    51.82000000    22.87000000
   H     75.79000000    52.93000000    26.34000000
   H     76.40000000    54.51000000    23.96000000
   H     77.40000000    51.78000000    24.96000000
   H     77.90000000    53.40000000    25.65000000
   H     78.45000000    54.12000000    23.32000000
   H     78.26000000    52.42000000    22.88000000
   H     79.99000000    51.64000000    24.33000000
   H     80.31000000    53.28000000    25.00000000
   H     81.66000000    53.84000000    23.46000000
   H     80.59000000    53.20000000    22.18000000
   H     82.34000000    51.35000000    23.66000000
   H     81.36000000    51.11000000    22.41000000
   H     82.70000000    52.10000000    22.30000000
   N     74.61000000    51.88000000    23.47000000
   C     74.18000000    50.89000000    22.51000000
   C     72.67000000    50.66000000    22.48000000
   O     72.14000000    50.01000000    21.58000000
   C     74.89000000    49.58000000    22.82000000
   C     74.87000000    49.16000000    24.29000000
   O     75.97000000    49.16000000    24.90000000
   O     73.80000000    48.86000000    24.85000000
   H     74.18000000    51.75000000    24.37000000
   H     74.43000000    51.11000000    21.47000000
   H     75.94000000    49.73000000    22.56000000
   H     74.54000000    48.78000000    22.16000000
   N     71.91000000    51.32000000    23.36000000
   C     70.48000000    51.57000000    23.44000000
   C     69.59000000    50.43000000    23.90000000
   O     68.38000000    50.45000000    23.70000000
   H     72.32000000    51.60000000    24.23000000
   H     70.14000000    51.97000000    22.49000000
   H     70.35000000    52.31000000    24.23000000
   N     70.07000000    49.50000000    24.73000000
   C     69.29000000    48.51000000    25.44000000
   C     68.46000000    49.00000000    26.61000000
   O     67.65000000    48.24000000    27.14000000
   C     70.12000000    47.27000000    25.80000000
   C     71.09000000    47.63000000    26.92000000
   N     71.51000000    46.71000000    27.79000000
   O     71.55000000    48.77000000    26.99000000
   H     71.03000000    49.67000000    25.00000000
   H     68.60000000    48.15000000    24.68000000
   H     70.72000000    47.04000000    24.92000000
   H     69.46000000    46.45000000    26.07000000
   H     71.06000000    45.81000000    27.89000000
   H     72.25000000    47.01000000    28.41000000
   N     68.80000000    50.20000000    27.08000000
   C     68.05000000    50.95000000    28.07000000
   C     68.62000000    50.89000000    29.48000000
   O     67.96000000    51.27000000    30.44000000
   H     69.63000000    50.62000000    26.69000000
   H     66.98000000    50.75000000    27.98000000
   H     68.04000000    52.01000000    27.85000000
   N     69.84000000    50.35000000    29.57000000
   C     70.61000000    50.18000000    30.79000000
   C     71.99000000    50.74000000    30.49000000
   O     72.56000000    50.57000000    29.41000000
   C     70.76000000    48.75000000    31.30000000
   C     69.48000000    47.97000000    31.53000000
   C     68.93000000    47.78000000    32.80000000
   C     68.73000000    47.46000000    30.47000000
   C     67.87000000    46.89000000    33.01000000
   C     67.67000000    46.56000000    30.62000000
   C     67.21000000    46.28000000    31.92000000
   O     66.07000000    45.57000000    32.13000000
   H     70.23000000    50.08000000    28.68000000
   H     70.13000000    50.79000000    31.55000000
   H     71.31000000    48.77000000    32.24000000
   H     71.27000000    48.19000000    30.51000000
   H     69.39000000    48.12000000    33.72000000
   H     69.03000000    47.70000000    29.46000000
   H     67.42000000    46.73000000    33.97000000
   H     67.32000000    46.02000000    29.75000000
   H     65.76000000    45.19000000    31.30000000
   N     72.64000000    51.37000000    31.47000000
   C     74.03000000    51.76000000    31.58000000
   C     74.82000000    50.75000000    32.40000000
   O     74.43000000    50.47000000    33.53000000
   C     74.25000000    53.13000000    32.21000000
   C     73.39000000    54.16000000    31.49000000
   C     75.73000000    53.49000000    32.10000000
   C     73.12000000    55.43000000    32.28000000
   H     72.06000000    51.73000000    32.21000000
   H     74.53000000    51.71000000    30.61000000
   H     74.03000000    53.22000000    33.28000000
   H     72.38000000    53.75000000    31.39000000
   H     73.79000000    54.44000000    30.51000000
   H     75.96000000    54.55000000    32.16000000
   H     76.30000000    53.05000000    32.92000000
   H     76.23000000    53.08000000    31.22000000
   H     74.03000000    55.96000000    32.60000000
   H     72.52000000    56.14000000    31.71000000
   H     72.56000000    55.14000000    33.17000000
   N     75.98000000    50.35000000    31.89000000
   C     76.96000000    49.53000000    32.58000000
   C     78.17000000    50.35000000    33.00000000
   O     78.41000000    51.48000000    32.57000000
   C     77.43000000    48.29000000    31.83000000
   O     78.07000000    48.80000000    30.69000000
   H     76.16000000    50.63000000    30.94000000
   H     76.50000000    49.27000000    33.54000000
   H     76.57000000    47.74000000    31.45000000
   H     78.14000000    47.77000000    32.48000000
   H     77.38000000    49.34000000    30.30000000
   N     79.03000000    49.72000000    33.80000000
   C     80.28000000    50.26000000    34.29000000
   C     81.24000000    50.68000000    33.18000000
   O     81.77000000    51.78000000    33.17000000
   C     80.84000000    49.27000000    35.30000000
   H     78.77000000    48.85000000    34.25000000
   H     80.00000000    51.09000000    34.94000000
   H     80.26000000    49.10000000    36.21000000
   H     80.91000000    48.32000000    34.78000000
   H     81.84000000    49.65000000    35.50000000
   N     81.32000000    49.80000000    32.18000000
   C     82.16000000    50.08000000    31.03000000
   C     81.62000000    51.25000000    30.23000000
   O     82.39000000    51.95000000    29.57000000
   C     82.39000000    48.86000000    30.14000000
   H     80.82000000    48.92000000    32.25000000
   H     83.08000000    50.30000000    31.58000000
   H     81.52000000    48.66000000    29.52000000
   H     83.21000000    49.12000000    29.48000000
   H     82.75000000    48.04000000    30.75000000
   N     80.31000000    51.52000000    30.20000000
   C     79.76000000    52.63000000    29.45000000
   C     79.96000000    53.91000000    30.25000000
   O     80.11000000    55.01000000    29.73000000
   C     78.30000000    52.22000000    29.26000000
   C     78.12000000    51.04000000    28.30000000
   C     76.63000000    50.73000000    28.22000000
   O     75.94000000    51.26000000    27.32000000
   O     76.14000000    49.98000000    29.08000000
   H     79.62000000    50.94000000    30.67000000
   H     80.24000000    52.64000000    28.47000000
   H     77.87000000    53.04000000    28.69000000
   H     77.86000000    51.89000000    30.20000000
   H     78.68000000    50.15000000    28.58000000
   H     78.42000000    51.39000000    27.31000000
   N     79.93000000    53.81000000    31.59000000
   C     80.11000000    54.99000000    32.41000000
   H     80.89500000    55.61300000    31.98100000
   H     79.17800000    55.55400000    32.44600000
   H     80.39400000    54.69200000    33.41900000
   H     79.71000000    52.91000000    31.99000000
  Ca     74.05000000    49.53000000    27.41000000
   O     75.66000000    47.55000000    26.85000000
   H     75.78000000    47.82000000    25.94000000
   H     75.88000000    46.62000000    26.85000000
   O     73.78000000    47.77000000    29.38000000
   H     73.90000000    47.84000000    30.33000000
   H     73.89000000    46.84000000    29.18000000

Ca 1.00



