%chk=loop4.apoCaM-CA-Ng.Init295.run27.water5.chk
%nprocshared=20
%mem=10GB
%nosave
#b3lyp/svp scf=(tight,noincore,xqc) Test 
#IOP(5/87=12) Density=Current Pop=(MK,readradii) iop(6/33=2) iop(6/42=6)

loop4.apoCaM-CA-Ng.Init295.run27.water5 

   -3  1 
   C     87.93000000    47.82000000    80.11000000
   C     88.65000000    46.49000000    80.00000000
   O     88.73000000    45.95000000    78.90000000
   H     86.96900000    47.67300000    80.60400000
   H     88.53500000    48.51400000    80.69300000
   H     87.76700000    48.22900000    79.11300000
   N     89.19000000    45.97000000    81.11000000
   C     89.91000000    44.73000000    81.32000000
   C     90.98000000    44.48000000    80.27000000
   O     91.21000000    43.38000000    79.78000000
   C     88.90000000    43.59000000    81.26000000
   C     87.68000000    43.87000000    82.14000000
   O     87.70000000    44.12000000    83.37000000
   O     86.53000000    43.88000000    81.66000000
   H     89.28000000    46.59000000    81.90000000
   H     90.35000000    44.84000000    82.31000000
   H     89.41000000    42.71000000    81.63000000
   H     88.51000000    43.56000000    80.25000000
   N     91.83000000    45.50000000    80.09000000
   C     93.02000000    45.61000000    79.27000000
   C     94.11000000    46.20000000    80.14000000
   O     93.95000000    47.27000000    80.73000000
   C     92.72000000    46.39000000    77.99000000
   C     94.04000000    46.56000000    77.24000000
   C     91.99000000    47.68000000    78.33000000
   C     94.05000000    47.26000000    75.88000000
   H     91.62000000    46.34000000    80.61000000
   H     93.29000000    44.62000000    78.91000000
   H     92.04000000    45.70000000    77.49000000
   H     94.44000000    45.55000000    77.10000000
   H     94.80000000    47.04000000    77.86000000
   H     91.75000000    48.16000000    77.38000000
   H     91.01000000    47.41000000    78.73000000
   H     92.61000000    48.34000000    78.93000000
   H     93.40000000    46.72000000    75.20000000
   H     93.76000000    48.31000000    75.93000000
   H     95.06000000    47.11000000    75.50000000
   N     95.29000000    45.62000000    80.38000000
   C     95.76000000    44.42000000    79.74000000
   C     95.26000000    43.07000000    80.23000000
   O     95.15000000    42.07000000    79.52000000
   C     97.29000000    44.43000000    79.78000000
   C     98.08000000    45.62000000    79.28000000
   O     99.25000000    45.50000000    78.86000000
   O     97.58000000    46.76000000    79.38000000
   H     95.94000000    46.23000000    80.86000000
   H     95.52000000    44.45000000    78.67000000
   H     97.61000000    43.58000000    79.18000000
   H     97.60000000    44.22000000    80.81000000
   N     94.73000000    43.16000000    81.45000000
   C     94.00000000    42.15000000    82.19000000
   C     94.85000000    40.90000000    82.30000000
   O     96.05000000    40.97000000    82.56000000
   H     94.81000000    44.04000000    81.94000000
   H     93.04000000    41.91000000    81.72000000
   H     93.73000000    42.44000000    83.21000000
   N     94.26000000    39.70000000    82.20000000
   C     94.91000000    38.41000000    82.24000000
   C     95.27000000    37.94000000    80.84000000
   O     95.94000000    36.92000000    80.68000000
   C     94.07000000    37.36000000    82.97000000
   C     92.68000000    37.13000000    82.39000000
   O     92.01000000    36.19000000    82.87000000
   O     92.32000000    37.86000000    81.44000000
   H     93.26000000    39.76000000    82.14000000
   H     95.84000000    38.71000000    82.72000000
   H     93.90000000    37.79000000    83.95000000
   H     94.61000000    36.41000000    83.01000000
   N     94.78000000    38.66000000    79.83000000
   C     94.84000000    38.37000000    78.41000000
   C     93.82000000    37.39000000    77.85000000
   O     93.82000000    37.05000000    76.67000000
   H     94.20000000    39.45000000    80.06000000
   H     95.85000000    38.01000000    78.21000000
   H     94.69000000    39.33000000    77.91000000
   N     92.99000000    36.86000000    78.76000000
   C     92.04000000    35.78000000    78.61000000
   C     91.14000000    35.94000000    77.40000000
   O     90.94000000    35.07000000    76.55000000
   C     92.79000000    34.46000000    78.73000000
   C     93.25000000    34.21000000    80.17000000
   C     94.12000000    32.97000000    80.26000000
   N     94.82000000    32.82000000    81.39000000
   O     94.37000000    32.22000000    79.32000000
   H     93.02000000    37.14000000    79.73000000
   H     91.34000000    35.73000000    79.45000000
   H     93.63000000    34.43000000    78.03000000
   H     92.26000000    33.55000000    78.47000000
   H     92.35000000    33.94000000    80.73000000
   H     93.80000000    35.07000000    80.56000000
   H     94.78000000    33.60000000    82.03000000
   H     95.56000000    32.13000000    81.37000000
   N     90.47000000    37.10000000    77.32000000
   C     89.70000000    37.46000000    76.15000000
   C     88.28000000    36.92000000    76.26000000
   O     87.61000000    37.26000000    77.23000000
   C     89.71000000    38.96000000    75.86000000
   C     90.97000000    39.42000000    75.12000000
   C     88.56000000    39.36000000    74.95000000
   H     90.57000000    37.75000000    78.09000000
   H     90.05000000    36.98000000    75.24000000
   H     89.63000000    39.44000000    76.84000000
   H     91.89000000    39.07000000    75.59000000
   H     90.96000000    39.20000000    74.06000000
   H     90.85000000    40.50000000    75.19000000
   H     88.75000000    40.32000000    74.48000000
   H     88.44000000    38.64000000    74.13000000
   H     87.64000000    39.43000000    75.54000000
   N     87.86000000    36.05000000    75.34000000
   C     86.54000000    35.46000000    75.26000000
   C     85.45000000    36.39000000    74.74000000
   O     85.70000000    37.27000000    73.93000000
   C     86.74000000    34.10000000    74.59000000
   C     85.46000000    33.33000000    74.27000000
   N     85.05000000    33.21000000    73.01000000
   O     84.68000000    32.95000000    75.14000000
   H     88.49000000    35.89000000    74.57000000
   H     86.35000000    35.23000000    76.31000000
   H     87.40000000    33.49000000    75.19000000
   H     87.30000000    34.26000000    73.67000000
   H     85.67000000    33.52000000    72.27000000
   H     84.16000000    32.76000000    72.88000000
   N     84.24000000    36.12000000    75.23000000
   C     83.04000000    36.79000000    74.77000000
   C     82.07000000    36.98000000    75.92000000
   O     81.81000000    36.08000000    76.71000000
   C     82.28000000    35.97000000    73.73000000
   C     81.06000000    36.61000000    73.12000000
   C     81.26000000    37.31000000    71.93000000
   C     79.76000000    36.56000000    73.63000000
   C     80.21000000    37.99000000    71.30000000
   C     78.70000000    37.14000000    72.92000000
   C     78.88000000    37.89000000    71.75000000
   O     77.96000000    38.66000000    71.10000000
   H     84.09000000    35.44000000    75.97000000
   H     83.29000000    37.77000000    74.36000000
   H     82.05000000    34.95000000    74.05000000
   H     82.93000000    35.69000000    72.90000000
   H     82.27000000    37.54000000    71.61000000
   H     79.50000000    35.96000000    74.49000000
   H     80.38000000    38.67000000    70.47000000
   H     77.74000000    37.14000000    73.43000000
   H     77.06000000    38.51000000    71.40000000
   N     81.33000000    38.09000000    75.86000000
   C     80.09000000    38.33000000    76.57000000
   C     79.01000000    39.09000000    75.81000000
   O     77.87000000    38.68000000    75.96000000
   C     80.29000000    39.08000000    77.89000000
   C     81.10000000    38.53000000    79.06000000
   C     81.08000000    39.43000000    80.29000000
   O     81.93000000    40.32000000    80.48000000
   O     80.09000000    39.31000000    81.04000000
   H     81.64000000    38.80000000    75.21000000
   H     79.68000000    37.35000000    76.81000000
   H     79.26000000    39.24000000    78.19000000
   H     80.69000000    40.07000000    77.63000000
   H     82.12000000    38.35000000    78.71000000
   H     80.76000000    37.53000000    79.32000000
   N     79.22000000    40.16000000    75.04000000
   C     80.35000000    41.05000000    74.99000000
   C     80.78000000    41.28000000    73.54000000
   O     79.91000000    41.31000000    72.67000000
   C     80.29000000    42.35000000    75.80000000
   C     79.29000000    43.35000000    75.22000000
   C     77.83000000    42.91000000    75.34000000
   O     77.43000000    42.59000000    76.48000000
   O     77.11000000    42.88000000    74.32000000
   H     78.35000000    40.45000000    74.61000000
   H     81.22000000    40.58000000    75.45000000
   H     81.23000000    42.83000000    75.56000000
   H     80.10000000    42.14000000    76.85000000
   H     79.49000000    43.61000000    74.18000000
   H     79.29000000    44.27000000    75.80000000
   N     82.09000000    41.42000000    73.36000000
   C     82.84000000    41.74000000    72.16000000
   H     83.83400000    41.29600000    72.22400000
   H     82.32000000    41.34100000    71.28900000
   H     82.93100000    42.82200000    72.06600000
   H     82.59000000    41.18000000    74.20000000
  Ca     85.41000000    45.22000000    83.76000000
   O     83.98000000    45.04000000    86.66000000
   H     83.85000000    45.88000000    86.22000000
   H     83.13000000    44.60000000    86.58000000
   O     83.91000000    45.98000000    81.55000000
   H     84.04000000    46.85000000    81.16000000
   H     83.33000000    45.53000000    80.93000000
   O     86.76000000    46.20000000    85.95000000
   H     87.58000000    46.45000000    86.37000000
   H     86.15000000    46.08000000    86.67000000
   O     82.93000000    43.99000000    83.87000000
   H     82.23000000    43.84000000    84.51000000
   H     82.89000000    43.22000000    83.29000000
   O     85.48000000    42.79000000    84.72000000
   H     84.87000000    42.25000000    85.22000000
   H     85.85000000    42.19000000    84.07000000

Ca 1.00



