%chk=loop4.apoCaM-CA-Ng.Init31.run6.water3.chk
%nprocshared=20
%mem=10GB
%nosave
#b3lyp/svp scf=(tight,noincore,xqc) Test 
#IOP(5/87=12) Density=Current Pop=(MK,readradii) iop(6/33=2) iop(6/42=6)

loop4.apoCaM-CA-Ng.Init31.run6.water3 

   -3  1 
   C     66.37000000    50.15000000    42.39000000
   C     67.85000000    50.30000000    42.68000000
   O     68.59000000    50.45000000    41.71000000
   H     65.84800000    51.05900000    42.68800000
   H     66.22400000    49.98000000    41.32300000
   H     65.97300000    49.30400000    42.95100000
   N     68.40000000    50.17000000    43.89000000
   C     67.81000000    50.48000000    45.18000000
   C     68.10000000    51.92000000    45.61000000
   O     67.40000000    52.43000000    46.48000000
   C     68.29000000    49.49000000    46.23000000
   C     68.27000000    48.05000000    45.74000000
   O     67.33000000    47.68000000    45.00000000
   O     69.21000000    47.26000000    45.98000000
   H     69.39000000    49.95000000    43.86000000
   H     66.74000000    50.32000000    45.10000000
   H     67.76000000    49.66000000    47.17000000
   H     69.36000000    49.70000000    46.33000000
   N     69.02000000    52.61000000    44.94000000
   C     69.41000000    53.94000000    45.38000000
   C     70.21000000    53.95000000    46.68000000
   O     70.00000000    54.83000000    47.51000000
   C     70.07000000    54.75000000    44.27000000
   C     70.25000000    56.24000000    44.55000000
   C     71.33000000    54.07000000    43.76000000
   C     70.40000000    57.02000000    43.25000000
   H     69.31000000    52.24000000    44.05000000
   H     68.53000000    54.50000000    45.68000000
   H     69.35000000    54.67000000    43.46000000
   H     71.16000000    56.41000000    45.12000000
   H     69.39000000    56.58000000    45.12000000
   H     71.78000000    54.46000000    42.84000000
   H     72.10000000    54.07000000    44.53000000
   H     71.19000000    53.00000000    43.58000000
   H     70.26000000    58.08000000    43.48000000
   H     71.37000000    56.71000000    42.86000000
   H     69.62000000    56.77000000    42.53000000
   N     71.09000000    52.99000000    46.96000000
   C     71.77000000    52.80000000    48.22000000
   C     71.86000000    51.38000000    48.74000000
   O     72.34000000    51.27000000    49.87000000
   C     73.12000000    53.49000000    48.07000000
   C     73.89000000    53.75000000    49.36000000
   O     73.20000000    54.11000000    50.34000000
   O     75.12000000    53.57000000    49.45000000
   H     71.33000000    52.38000000    46.18000000
   H     71.11000000    53.26000000    48.97000000
   H     72.95000000    54.48000000    47.65000000
   H     73.77000000    52.91000000    47.42000000
   N     71.50000000    50.30000000    48.04000000
   C     71.65000000    48.95000000    48.55000000
   C     73.03000000    48.40000000    48.21000000
   O     74.03000000    49.09000000    48.34000000
   H     71.04000000    50.41000000    47.15000000
   H     70.81000000    48.33000000    48.23000000
   H     71.58000000    48.99000000    49.64000000
   N     73.13000000    47.12000000    47.86000000
   C     74.38000000    46.46000000    47.52000000
   C     74.94000000    45.89000000    48.81000000
   O     74.21000000    45.55000000    49.74000000
   C     74.26000000    45.33000000    46.50000000
   C     73.21000000    44.27000000    46.80000000
   O     72.14000000    44.23000000    46.15000000
   O     73.56000000    43.34000000    47.57000000
   H     72.28000000    46.56000000    47.84000000
   H     75.15000000    47.14000000    47.15000000
   H     75.23000000    44.87000000    46.35000000
   H     74.00000000    45.79000000    45.55000000
   N     76.26000000    45.73000000    48.88000000
   C     77.26000000    46.22000000    47.95000000
   C     77.59000000    47.66000000    48.28000000
   O     77.23000000    48.14000000    49.35000000
   H     76.50000000    45.51000000    49.84000000
   H     76.85000000    46.10000000    46.95000000
   H     78.17000000    45.62000000    47.97000000
   N     78.20000000    48.45000000    47.39000000
   C     78.75000000    48.26000000    46.06000000
   C     77.67000000    48.12000000    44.99000000
   O     76.48000000    48.14000000    45.31000000
   C     79.94000000    47.31000000    46.01000000
   C     81.06000000    47.84000000    46.90000000
   C     82.29000000    46.95000000    46.90000000
   N     82.46000000    46.02000000    47.84000000
   O     83.07000000    47.02000000    45.94000000
   H     78.33000000    49.37000000    47.78000000
   H     79.17000000    49.25000000    45.86000000
   H     80.34000000    47.18000000    45.01000000
   H     79.52000000    46.32000000    46.23000000
   H     80.83000000    47.89000000    47.96000000
   H     81.41000000    48.80000000    46.52000000
   H     81.68000000    45.68000000    48.38000000
   H     83.26000000    45.40000000    47.74000000
   N     78.06000000    48.04000000    43.72000000
   C     77.30000000    47.98000000    42.48000000
   C     77.87000000    48.92000000    41.43000000
   O     79.08000000    49.11000000    41.38000000
   C     77.10000000    46.58000000    41.91000000
   C     76.22000000    45.73000000    42.82000000
   C     78.33000000    45.75000000    41.53000000
   H     79.06000000    47.98000000    43.63000000
   H     76.32000000    48.40000000    42.72000000
   H     76.58000000    46.67000000    40.96000000
   H     75.25000000    46.23000000    42.83000000
   H     76.01000000    44.77000000    42.34000000
   H     76.67000000    45.59000000    43.80000000
   H     78.12000000    44.76000000    41.12000000
   H     79.05000000    46.25000000    40.88000000
   H     78.83000000    45.38000000    42.42000000
   N     77.04000000    49.47000000    40.55000000
   C     77.41000000    50.51000000    39.61000000
   C     76.66000000    50.41000000    38.29000000
   O     77.36000000    50.23000000    37.30000000
   C     77.05000000    51.84000000    40.28000000
   C     78.08000000    52.23000000    41.34000000
   N     77.80000000    52.06000000    42.63000000
   O     79.12000000    52.82000000    41.05000000
   H     76.04000000    49.30000000    40.64000000
   H     78.46000000    50.44000000    39.35000000
   H     76.02000000    51.93000000    40.62000000
   H     77.10000000    52.65000000    39.56000000
   H     76.89000000    51.92000000    43.04000000
   H     78.48000000    52.31000000    43.33000000
   N     75.35000000    50.64000000    38.20000000
   C     74.49000000    50.51000000    37.05000000
   C     74.32000000    49.15000000    36.39000000
   O     75.28000000    48.39000000    36.26000000
   C     74.88000000    51.56000000    36.00000000
   C     73.89000000    51.82000000    34.89000000
   C     73.72000000    50.98000000    33.79000000
   C     73.21000000    53.05000000    34.92000000
   C     72.97000000    51.40000000    32.69000000
   C     72.38000000    53.40000000    33.85000000
   C     72.27000000    52.62000000    32.68000000
   O     71.54000000    52.94000000    31.57000000
   H     74.95000000    50.75000000    39.12000000
   H     73.53000000    50.90000000    37.39000000
   H     75.81000000    51.23000000    35.53000000
   H     75.19000000    52.47000000    36.50000000
   H     74.32000000    50.08000000    33.78000000
   H     73.34000000    53.69000000    35.78000000
   H     73.01000000    50.87000000    31.74000000
   H     71.74000000    54.26000000    33.98000000
   H     71.29000000    53.86000000    31.53000000
   N     73.11000000    48.84000000    35.91000000
   C     72.72000000    47.58000000    35.31000000
   C     71.27000000    47.27000000    35.66000000
   O     70.38000000    47.26000000    34.81000000
   C     73.17000000    47.37000000    33.87000000
   C     72.96000000    45.93000000    33.40000000
   C     73.70000000    45.70000000    32.09000000
   O     74.94000000    45.88000000    32.06000000
   O     73.07000000    45.34000000    31.07000000
   H     72.34000000    49.49000000    35.98000000
   H     73.23000000    46.82000000    35.90000000
   H     74.24000000    47.58000000    33.87000000
   H     72.73000000    48.10000000    33.21000000
   H     71.91000000    45.72000000    33.18000000
   H     73.34000000    45.30000000    34.20000000
   N     71.01000000    47.06000000    36.95000000
   C     69.65000000    47.11000000    37.46000000
   C     69.26000000    48.56000000    37.66000000
   O     68.18000000    48.97000000    37.24000000
   C     69.69000000    46.21000000    38.70000000
   C     68.49000000    46.38000000    39.62000000
   C     68.77000000    45.71000000    40.96000000
   O     69.35000000    46.38000000    41.84000000
   O     68.33000000    44.56000000    41.19000000
   H     71.79000000    47.14000000    37.58000000
   H     69.01000000    46.61000000    36.73000000
   H     70.61000000    46.27000000    39.28000000
   H     69.61000000    45.18000000    38.35000000
   H     67.58000000    45.95000000    39.20000000
   H     68.40000000    47.45000000    39.81000000
   N     69.99000000    49.36000000    38.45000000
   C     69.79000000    50.79000000    38.37000000
   H     68.86900000    51.05700000    38.88800000
   H     70.63100000    51.30200000    38.83800000
   H     69.71800000    51.08900000    37.32400000
   H     70.73000000    49.06000000    39.07000000
  Ca     67.91000000    45.40000000    43.78000000
   O     67.68000000    42.78000000    43.27000000
   H     67.41000000    42.13000000    42.62000000
   H     68.33000000    42.32000000    43.81000000
   O     67.58000000    44.06000000    45.92000000
   H     67.07000000    43.25000000    45.99000000
   H     68.27000000    43.98000000    46.58000000
   O     70.37000000    44.81000000    44.32000000
   H     71.03000000    45.07000000    43.67000000
   H     70.87000000    44.44000000    45.04000000

Ca 1.00



