%chk=loop2.apoCaM-CA-Ng.Init31.run68.water6.chk
%nprocshared=20
%mem=10GB
%nosave
#b3lyp/svp scf=(tight,noincore,xqc) Test 
#IOP(5/87=12) Density=Current Pop=(MK,readradii) iop(6/33=2) iop(6/42=6)

loop2.apoCaM-CA-Ng.Init31.run68.water6 

   -2  1 
   C     87.17000000    60.39000000    13.93000000
   C     86.66000000    59.24000000    14.77000000
   O     87.10000000    59.03000000    15.90000000
   H     88.17300000    60.16000000    13.57200000
   H     86.50600000    60.54100000    13.07900000
   H     87.19900000    61.29700000    14.53400000
   N     85.79000000    58.33000000    14.31000000
   C     84.96000000    58.58000000    13.15000000
   C     84.90000000    57.36000000    12.24000000
   O     85.10000000    56.21000000    12.61000000
   C     83.55000000    58.96000000    13.61000000
   C     82.95000000    58.30000000    14.84000000
   O     82.75000000    58.84000000    15.94000000
   O     82.61000000    57.10000000    14.67000000
   H     85.70000000    57.45000000    14.79000000
   H     85.36000000    59.46000000    12.64000000
   H     82.86000000    58.84000000    12.77000000
   H     83.57000000    60.04000000    13.75000000
   N     84.61000000    57.77000000    11.00000000
   C     84.47000000    56.93000000     9.83000000
   C     83.58000000    55.73000000    10.12000000
   O     82.64000000    55.80000000    10.90000000
   C     85.81000000    56.63000000     9.16000000
   H     84.47000000    58.77000000    10.96000000
   H     83.82000000    57.44000000     9.12000000
   H     86.58000000    56.21000000     9.80000000
   H     85.61000000    55.81000000     8.46000000
   H     86.30000000    57.51000000     8.73000000
   N     83.71000000    54.65000000     9.33000000
   C     82.87000000    53.48000000     9.46000000
   C     82.65000000    52.92000000    10.86000000
   O     83.59000000    52.78000000    11.64000000
   C     83.30000000    52.35000000     8.53000000
   C     84.78000000    52.03000000     8.67000000
   O     85.54000000    52.61000000     7.87000000
   O     85.13000000    51.26000000     9.60000000
   H     84.36000000    54.59000000     8.56000000
   H     81.89000000    53.78000000     9.08000000
   H     83.07000000    52.69000000     7.52000000
   H     82.65000000    51.48000000     8.61000000
   N     81.40000000    52.61000000    11.20000000
   C     80.99000000    52.17000000    12.52000000
   C     79.56000000    51.71000000    12.72000000
   O     78.62000000    52.27000000    12.15000000
   H     80.69000000    52.85000000    10.52000000
   H     81.28000000    52.90000000    13.28000000
   H     81.63000000    51.32000000    12.76000000
   N     79.39000000    50.60000000    13.43000000
   C     78.17000000    49.82000000    13.56000000
   C     77.58000000    49.95000000    14.96000000
   O     76.48000000    49.44000000    15.13000000
   C     78.45000000    48.36000000    13.22000000
   C     77.26000000    47.52000000    12.79000000
   N     76.75000000    46.64000000    13.65000000
   O     76.83000000    47.63000000    11.64000000
   H     80.22000000    50.30000000    13.93000000
   H     77.44000000    50.30000000    12.91000000
   H     79.03000000    47.92000000    14.03000000
   H     79.17000000    48.34000000    12.40000000
   H     77.14000000    46.58000000    14.58000000
   H     75.95000000    46.12000000    13.33000000
   N     78.23000000    50.60000000    15.94000000
   C     77.65000000    50.78000000    17.25000000
   C     77.68000000    49.53000000    18.11000000
   O     78.24000000    48.51000000    17.73000000
   H     79.06000000    51.12000000    15.69000000
   H     76.65000000    51.17000000    17.04000000
   H     78.27000000    51.50000000    17.78000000
   N     77.15000000    49.53000000    19.34000000
   C     76.44000000    50.64000000    19.95000000
   C     77.11000000    51.15000000    21.21000000
   O     76.72000000    52.22000000    21.67000000
   C     74.99000000    50.29000000    20.25000000
   C     74.07000000    51.43000000    20.69000000
   O     74.38000000    49.78000000    19.08000000
   H     77.10000000    48.64000000    19.82000000
   H     76.45000000    51.46000000    19.23000000
   H     74.95000000    49.46000000    20.95000000
   H     74.66000000    48.87000000    18.98000000
   H     74.32000000    52.29000000    20.07000000
   H     73.01000000    51.19000000    20.82000000
   H     74.45000000    51.64000000    21.69000000
   N     78.26000000    50.58000000    21.60000000
   C     79.16000000    51.07000000    22.62000000
   C     78.56000000    51.47000000    23.96000000
   O     78.12000000    52.59000000    24.22000000
   C     80.03000000    52.21000000    22.08000000
   C     80.76000000    51.97000000    20.77000000
   C     81.11000000    52.51000000    23.12000000
   C     81.38000000    50.59000000    20.57000000
   H     78.50000000    49.67000000    21.24000000
   H     79.92000000    50.31000000    22.80000000
   H     79.42000000    53.11000000    21.93000000
   H     81.53000000    52.73000000    20.57000000
   H     80.10000000    52.16000000    19.93000000
   H     81.80000000    53.28000000    22.78000000
   H     80.66000000    52.90000000    24.03000000
   H     81.57000000    51.57000000    23.42000000
   H     80.62000000    49.81000000    20.55000000
   H     81.80000000    50.49000000    19.57000000
   H     82.14000000    50.53000000    21.35000000
   N     78.50000000    50.54000000    24.92000000
   C     78.86000000    49.14000000    24.86000000
   C     80.36000000    48.88000000    25.01000000
   O     80.95000000    48.28000000    24.12000000
   C     78.01000000    48.35000000    25.85000000
   C     77.98000000    48.74000000    27.32000000
   O     77.38000000    47.94000000    28.06000000
   O     78.47000000    49.82000000    27.72000000
   H     78.02000000    50.83000000    25.75000000
   H     78.68000000    48.64000000    23.91000000
   H     78.25000000    47.28000000    25.79000000
   H     76.98000000    48.44000000    25.49000000
   N     80.92000000    49.39000000    26.11000000
   C     82.27000000    49.12000000    26.57000000
   C     82.31000000    47.93000000    27.52000000
   O     81.25000000    47.54000000    28.00000000
   C     82.86000000    50.41000000    27.12000000
   C     82.40000000    50.88000000    28.48000000
   C     81.28000000    51.70000000    28.61000000
   C     83.20000000    50.50000000    29.57000000
   C     81.03000000    52.31000000    29.85000000
   C     82.81000000    50.90000000    30.85000000
   C     81.76000000    51.82000000    30.94000000
   H     80.33000000    49.83000000    26.81000000
   H     82.83000000    48.71000000    25.73000000
   H     82.72000000    51.18000000    26.36000000
   H     83.93000000    50.22000000    27.07000000
   H     80.70000000    52.02000000    27.75000000
   H     84.04000000    49.83000000    29.45000000
   H     80.27000000    53.04000000    30.09000000
   H     83.36000000    50.61000000    31.74000000
   H     81.48000000    52.15000000    31.93000000
   N     83.47000000    47.43000000    27.95000000
   C     84.83000000    47.64000000    27.48000000
   C     85.03000000    47.26000000    26.02000000
   O     84.08000000    46.78000000    25.40000000
   C     85.80000000    46.87000000    28.37000000
   C     84.84000000    45.76000000    28.78000000
   C     83.53000000    46.49000000    29.04000000
   H     85.03000000    48.71000000    27.55000000
   H     86.72000000    46.51000000    27.92000000
   H     85.94000000    47.43000000    29.30000000
   H     84.73000000    45.02000000    27.99000000
   H     85.08000000    45.21000000    29.69000000
   H     82.72000000    45.76000000    28.92000000
   H     83.55000000    47.00000000    30.01000000
   N     86.18000000    47.59000000    25.43000000
   C     86.57000000    47.25000000    24.08000000
   C     87.46000000    48.22000000    23.31000000
   O     88.32000000    47.80000000    22.54000000
   C     87.19000000    45.85000000    24.01000000
   C     86.49000000    44.73000000    24.77000000
   C     85.28000000    44.20000000    24.00000000
   O     85.26000000    44.33000000    22.76000000
   O     84.33000000    43.64000000    24.60000000
   H     86.92000000    48.05000000    25.93000000
   H     85.62000000    47.24000000    23.55000000
   H     88.19000000    45.95000000    24.44000000
   H     87.40000000    45.55000000    22.99000000
   H     86.29000000    45.06000000    25.79000000
   H     87.09000000    43.83000000    24.88000000
   N     87.44000000    49.54000000    23.48000000
   C     86.76000000    50.47000000    24.36000000
   H     85.76700000    50.08700000    24.59600000
   H     87.33200000    50.58500000    25.28000000
   H     86.66800000    51.43700000    23.86600000
   H     88.02000000    50.00000000    22.79000000
  Ca     85.82000000    51.52000000    12.14000000
   O     84.11000000    51.96000000    14.28000000
   H     84.04000000    52.32000000    15.16000000
   H     83.47000000    52.46000000    13.77000000
   O     87.70000000    52.76000000    10.49000000
   H     88.55000000    52.36000000    10.68000000
   H     87.92000000    53.65000000    10.21000000
   O     87.07000000    49.09000000    11.34000000
   H     86.45000000    48.37000000    11.33000000
   H     87.79000000    48.79000000    10.79000000
   O     84.03000000    49.59000000    12.04000000
   H     83.83000000    48.93000000    11.37000000
   H     83.29000000    49.54000000    12.65000000
   O     86.32000000    53.93000000    12.99000000
   H     87.19000000    54.08000000    13.36000000
   H     86.01000000    54.79000000    12.73000000
   O     88.20000000    51.23000000    13.32000000
   H     88.30000000    51.45000000    14.24000000
   H     88.81000000    50.52000000    13.16000000

Ca 1.00



