%chk=loop3.apoCaM-CA-Ng.Init295.run91.water6.chk
%nprocshared=20
%mem=10GB
%nosave
#b3lyp/svp scf=(tight,noincore,xqc) Test 
#IOP(5/87=12) Density=Current Pop=(MK,readradii) iop(6/33=2) iop(6/42=6)

loop3.apoCaM-CA-Ng.Init295.run91.water6 

   0  1 
   C     98.65000000   -24.52000000    74.97000000
   C     97.81000000   -24.46000000    73.71000000
   O     98.04000000   -23.54000000    72.93000000
   H     99.54200000   -23.90700000    74.84100000
   H     98.07000000   -24.14300000    75.81200000
   H     98.94300000   -25.55200000    75.16300000
   N     96.81000000   -25.31000000    73.45000000
   C     95.92000000   -25.21000000    72.32000000
   C     94.44000000   -25.29000000    72.66000000
   O     94.04000000   -26.19000000    73.39000000
   C     96.32000000   -26.23000000    71.26000000
   C     95.58000000   -26.02000000    69.95000000
   O     96.17000000   -25.65000000    68.91000000
   O     94.36000000   -26.27000000    69.89000000
   H     96.55000000   -26.00000000    74.15000000
   H     96.01000000   -24.19000000    71.94000000
   H     96.00000000   -27.14000000    71.77000000
   H     97.40000000   -26.19000000    71.12000000
   N     93.63000000   -24.42000000    72.06000000
   C     92.26000000   -24.21000000    72.48000000
   C     91.42000000   -25.45000000    72.21000000
   O     90.33000000   -25.47000000    72.78000000
   C     91.71000000   -22.94000000    71.85000000
   C     92.36000000   -21.62000000    72.26000000
   C     92.42000000   -21.37000000    73.76000000
   C     92.99000000   -20.10000000    74.38000000
   N     92.93000000   -20.14000000    75.85000000
   H     94.14000000   -23.81000000    71.43000000
   H     92.15000000   -24.11000000    73.56000000
   H     90.63000000   -22.97000000    71.99000000
   H     91.89000000   -22.99000000    70.78000000
   H     91.83000000   -20.71000000    71.98000000
   H     93.42000000   -21.63000000    72.00000000
   H     93.00000000   -22.20000000    74.16000000
   H     91.38000000   -21.49000000    74.08000000
   H     92.33000000   -19.32000000    74.01000000
   H     94.01000000   -19.90000000    74.05000000
   H     93.68000000   -20.68000000    76.25000000
   H     92.97000000   -19.23000000    76.29000000
   H     92.10000000   -20.59000000    76.22000000
   N     91.82000000   -26.46000000    71.44000000
   C     91.21000000   -27.76000000    71.23000000
   C     92.18000000   -28.93000000    71.24000000
   O     91.75000000   -29.98000000    71.73000000
   C     90.36000000   -27.81000000    69.96000000
   C     90.83000000   -27.51000000    68.55000000
   O     90.11000000   -27.37000000    67.53000000
   O     92.05000000   -27.30000000    68.43000000
   H     92.71000000   -26.37000000    70.96000000
   H     90.66000000   -27.91000000    72.16000000
   H     89.47000000   -27.22000000    70.19000000
   H     89.87000000   -28.79000000    69.98000000
   N     93.39000000   -28.76000000    70.70000000
   C     94.47000000   -29.72000000    70.68000000
   C     94.34000000   -30.88000000    69.71000000
   O     94.79000000   -31.97000000    70.05000000
   H     93.52000000   -27.81000000    70.36000000
   H     94.61000000   -30.10000000    71.69000000
   H     95.40000000   -29.26000000    70.37000000
   N     93.67000000   -30.75000000    68.56000000
   C     93.51000000   -31.84000000    67.61000000
   C     93.68000000   -31.34000000    66.18000000
   O     93.52000000   -30.15000000    65.92000000
   C     92.10000000   -32.38000000    67.83000000
   C     91.92000000   -33.76000000    67.21000000
   N     92.09000000   -34.88000000    67.92000000
   O     91.70000000   -34.00000000    66.03000000
   H     93.49000000   -29.79000000    68.29000000
   H     94.19000000   -32.68000000    67.75000000
   H     91.33000000   -31.75000000    67.37000000
   H     91.80000000   -32.35000000    68.88000000
   H     92.50000000   -34.85000000    68.85000000
   H     91.74000000   -35.73000000    67.52000000
   N     94.03000000   -32.28000000    65.30000000
   C     94.16000000   -32.09000000    63.87000000
   C     94.53000000   -33.41000000    63.20000000
   O     95.18000000   -34.25000000    63.82000000
   H     93.98000000   -33.24000000    65.62000000
   H     94.97000000   -31.43000000    63.57000000
   H     93.26000000   -31.72000000    63.39000000
   N     94.17000000   -33.52000000    61.92000000
   C     94.46000000   -34.62000000    61.03000000
   C     94.30000000   -34.04000000    59.64000000
   O     93.34000000   -33.32000000    59.34000000
   C     93.35000000   -35.63000000    61.28000000
   C     93.10000000   -36.75000000    60.29000000
   C     92.03000000   -36.61000000    59.40000000
   C     94.07000000   -37.71000000    59.97000000
   C     91.67000000   -37.64000000    58.53000000
   C     93.83000000   -38.73000000    59.04000000
   C     92.60000000   -38.68000000    58.34000000
   O     92.44000000   -39.66000000    57.41000000
   H     93.55000000   -32.82000000    61.55000000
   H     95.44000000   -35.08000000    61.17000000
   H     92.45000000   -35.05000000    61.48000000
   H     93.63000000   -36.04000000    62.25000000
   H     91.52000000   -35.66000000    59.32000000
   H     95.01000000   -37.75000000    60.50000000
   H     90.83000000   -37.64000000    57.86000000
   H     94.54000000   -39.54000000    58.97000000
   H     93.25000000   -40.16000000    57.26000000
   N     95.22000000   -34.30000000    58.71000000
   C     95.36000000   -33.67000000    57.42000000
   C     94.28000000   -34.07000000    56.42000000
   O     93.13000000   -34.22000000    56.82000000
   C     95.66000000   -32.18000000    57.47000000
   C     95.47000000   -31.48000000    56.12000000
   C     97.09000000   -32.02000000    57.99000000
   C     95.85000000   -30.01000000    56.27000000
   H     95.98000000   -34.91000000    58.99000000
   H     96.32000000   -34.05000000    57.04000000
   H     94.87000000   -31.78000000    58.11000000
   H     94.44000000   -31.55000000    55.77000000
   H     96.07000000   -31.86000000    55.30000000
   H     97.18000000   -32.46000000    58.99000000
   H     97.91000000   -32.52000000    57.47000000
   H     97.37000000   -30.97000000    58.03000000
   H     95.46000000   -29.44000000    55.43000000
   H     95.33000000   -29.63000000    57.14000000
   H     96.93000000   -29.84000000    56.22000000
   N     94.59000000   -34.13000000    55.12000000
   C     93.67000000   -34.28000000    54.02000000
   C     94.21000000   -35.07000000    52.83000000
   O     93.42000000   -35.66000000    52.10000000
   C     93.41000000   -32.89000000    53.45000000
   O     94.62000000   -32.26000000    53.10000000
   H     95.52000000   -33.84000000    54.90000000
   H     92.82000000   -34.83000000    54.43000000
   H     92.88000000   -32.30000000    54.20000000
   H     92.78000000   -32.96000000    52.56000000
   H     94.47000000   -31.31000000    53.10000000
   N     95.53000000   -35.09000000    52.64000000
   C     96.26000000   -35.64000000    51.52000000
   C     95.63000000   -35.33000000    50.16000000
   O     95.04000000   -36.21000000    49.55000000
   C     96.45000000   -37.12000000    51.82000000
   H     96.14000000   -34.72000000    53.36000000
   H     97.26000000   -35.23000000    51.45000000
   H     97.03000000   -37.65000000    51.06000000
   H     97.08000000   -37.11000000    52.71000000
   H     95.52000000   -37.68000000    51.90000000
   N     95.64000000   -34.11000000    49.62000000
   C     96.17000000   -32.89000000    50.19000000
   C     97.55000000   -32.53000000    49.67000000
   O     97.98000000   -32.90000000    48.57000000
   C     95.15000000   -31.76000000    50.07000000
   H     95.00000000   -34.00000000    48.85000000
   H     96.41000000   -33.10000000    51.24000000
   H     95.43000000   -30.84000000    50.59000000
   H     94.89000000   -31.58000000    49.03000000
   H     94.24000000   -32.06000000    50.60000000
   N     98.46000000   -31.95000000    50.46000000
   C     98.40000000   -31.53000000    51.84000000
   C     99.66000000   -31.81000000    52.64000000
   O     99.42000000   -32.47000000    53.65000000
   C     98.06000000   -30.04000000    51.85000000
   C     97.67000000   -29.60000000    53.25000000
   C     97.03000000   -28.22000000    53.26000000
   O     95.95000000   -27.99000000    52.68000000
   O     97.72000000   -27.43000000    53.94000000
   H     99.35000000   -31.91000000    49.98000000
   H     97.61000000   -32.03000000    52.40000000
   H     97.25000000   -29.88000000    51.13000000
   H     98.92000000   -29.48000000    51.46000000
   H     98.63000000   -29.58000000    53.77000000
   H     96.93000000   -30.33000000    53.58000000
   N    100.91000000   -31.60000000    52.22000000
   C    102.13000000   -32.24000000    52.68000000
   H    102.90100000   -31.48400000    52.83300000
   H    101.93700000   -32.75700000    53.62000000
   H    102.46900000   -32.95700000    51.93200000
   H    101.02000000   -31.13000000    51.33000000
  Ca     93.87000000   -26.03400000    67.32000000
   O     95.36000000   -28.47400000    67.52000000
   H     96.28000000   -28.27400000    67.70000000
   H     95.39000000   -29.17400000    66.87000000
   O     92.58000000   -24.82400000    65.18000000
   H     92.82000000   -24.92400000    64.26000000
   H     91.75000000   -24.33400000    65.16000000
   O     95.33000000   -23.74400000    66.60000000
   H     94.87000000   -22.91400000    66.53000000
   H     96.18000000   -23.58400000    66.18000000
   O     92.41000000   -27.66400000    65.75000000
   H     91.50000000   -27.60400000    66.05000000
   H     92.49000000   -28.55400000    65.41000000
   O     95.16000000   -26.59400000    65.08000000
   H     95.35000000   -25.84400000    64.52000000
   H     95.28000000   -27.35400000    64.51000000
   O     92.49000000   -24.00400000    68.18000000
   H     91.54000000   -23.95400000    68.06000000
   H     92.72000000   -23.16400000    68.58000000

Ca 1.00



