%chk=loop4.apoCaM-CA-Ng.Init295.run72.water2.chk
%nprocshared=20
%mem=10GB
%nosave
#b3lyp/svp scf=(tight,noincore,xqc) Test 
#IOP(5/87=12) Density=Current Pop=(MK,readradii) iop(6/33=2) iop(6/42=6)

loop4.apoCaM-CA-Ng.Init295.run72.water2 

   -3  1 
   C    -17.29000000    -7.88000000    27.84000000
   C    -18.48000000    -8.78000000    27.55000000
   O    -18.56000000    -9.92000000    28.00000000
   H    -16.46300000    -8.14900000    27.18300000
   H    -17.56900000    -6.84100000    27.66600000
   H    -16.98300000    -8.00600000    28.87800000
   N    -19.42000000    -8.31000000    26.72000000
   C    -20.48000000    -9.11000000    26.15000000
   C    -21.59000000    -9.54000000    27.11000000
   O    -22.28000000   -10.52000000    26.81000000
   C    -20.00000000   -10.21000000    25.20000000
   C    -18.81000000    -9.85000000    24.33000000
   O    -17.88000000   -10.69000000    24.36000000
   O    -18.82000000    -8.85000000    23.58000000
   H    -19.25000000    -7.41000000    26.29000000
   H    -21.02000000    -8.47000000    25.46000000
   H    -20.88000000   -10.65000000    24.72000000
   H    -19.70000000   -10.99000000    25.89000000
   N    -21.81000000    -8.87000000    28.23000000
   C    -22.70000000    -9.36000000    29.27000000
   C    -24.16000000    -9.12000000    28.91000000
   O    -24.52000000    -8.10000000    28.33000000
   C    -22.30000000    -8.68000000    30.58000000
   C    -20.86000000    -8.98000000    30.97000000
   C    -23.16000000    -8.93000000    31.82000000
   C    -20.36000000   -10.34000000    31.44000000
   H    -21.44000000    -7.94000000    28.39000000
   H    -22.51000000   -10.43000000    29.36000000
   H    -22.32000000    -7.62000000    30.32000000
   H    -20.63000000    -8.28000000    31.77000000
   H    -20.15000000    -8.78000000    30.16000000
   H    -24.22000000    -8.84000000    31.58000000
   H    -23.07000000    -9.95000000    32.20000000
   H    -22.83000000    -8.23000000    32.58000000
   H    -20.84000000   -10.68000000    32.36000000
   H    -20.68000000   -10.94000000    30.59000000
   H    -19.29000000   -10.27000000    31.64000000
   N    -25.07000000    -9.96000000    29.42000000
   C    -24.88000000   -11.30000000    29.93000000
   C    -24.66000000   -12.37000000    28.87000000
   O    -23.77000000   -13.20000000    29.08000000
   C    -26.02000000   -11.79000000    30.81000000
   C    -27.37000000   -11.41000000    30.21000000
   O    -27.73000000   -10.29000000    30.62000000
   O    -27.89000000   -12.25000000    29.44000000
   H    -25.98000000    -9.54000000    29.56000000
   H    -23.95000000   -11.36000000    30.49000000
   H    -25.93000000   -11.33000000    31.80000000
   H    -26.06000000   -12.88000000    30.87000000
   N    -25.39000000   -12.32000000    27.76000000
   C    -25.36000000   -13.37000000    26.76000000
   C    -25.44000000   -14.82000000    27.24000000
   O    -26.09000000   -15.10000000    28.24000000
   H    -25.94000000   -11.47000000    27.72000000
   H    -24.60000000   -13.22000000    25.99000000
   H    -26.21000000   -13.15000000    26.13000000
   N    -24.69000000   -15.69000000    26.56000000
   C    -24.82000000   -17.11000000    26.83000000
   C    -23.65000000   -17.73000000    27.58000000
   O    -23.71000000   -18.88000000    28.02000000
   C    -25.00000000   -17.88000000    25.52000000
   C    -23.88000000   -17.71000000    24.51000000
   O    -24.19000000   -17.86000000    23.30000000
   O    -22.75000000   -17.25000000    24.79000000
   H    -24.15000000   -15.33000000    25.79000000
   H    -25.69000000   -17.26000000    27.46000000
   H    -25.88000000   -17.60000000    24.95000000
   H    -25.17000000   -18.93000000    25.76000000
   N    -22.60000000   -16.95000000    27.85000000
   C    -21.36000000   -17.42000000    28.42000000
   C    -20.61000000   -18.43000000    27.56000000
   O    -19.77000000   -19.14000000    28.12000000
   H    -22.61000000   -16.03000000    27.44000000
   H    -21.60000000   -17.92000000    29.36000000
   H    -20.69000000   -16.59000000    28.65000000
   N    -20.76000000   -18.45000000    26.24000000
   C    -20.03000000   -19.40000000    25.43000000
   C    -18.52000000   -19.38000000    25.64000000
   O    -17.77000000   -20.35000000    25.66000000
   C    -20.71000000   -20.76000000    25.53000000
   C    -22.19000000   -20.64000000    25.18000000
   C    -22.88000000   -21.95000000    24.82000000
   N    -24.02000000   -22.34000000    25.38000000
   O    -22.40000000   -22.70000000    23.97000000
   H    -21.23000000   -17.69000000    25.77000000
   H    -20.17000000   -19.01000000    24.42000000
   H    -20.52000000   -21.33000000    26.44000000
   H    -20.30000000   -21.39000000    24.74000000
   H    -22.29000000   -19.99000000    24.30000000
   H    -22.80000000   -20.18000000    25.95000000
   H    -24.27000000   -21.92000000    26.26000000
   H    -24.26000000   -23.31000000    25.21000000
   N    -18.01000000   -18.15000000    25.75000000
   C    -16.62000000   -17.90000000    26.07000000
   C    -15.86000000   -17.34000000    24.87000000
   O    -16.41000000   -16.50000000    24.16000000
   C    -16.50000000   -17.10000000    27.36000000
   C    -15.04000000   -17.01000000    27.79000000
   C    -17.22000000   -15.75000000    27.34000000
   H    -18.65000000   -17.37000000    25.70000000
   H    -16.10000000   -18.84000000    26.25000000
   H    -16.94000000   -17.61000000    28.21000000
   H    -14.60000000   -17.99000000    27.62000000
   H    -14.60000000   -16.18000000    27.23000000
   H    -14.91000000   -16.89000000    28.87000000
   H    -16.76000000   -15.24000000    28.19000000
   H    -16.81000000   -15.12000000    26.56000000
   H    -18.30000000   -15.85000000    27.51000000
   N    -14.66000000   -17.82000000    24.55000000
   C    -13.77000000   -17.29000000    23.53000000
   C    -12.50000000   -16.73000000    24.14000000
   O    -12.13000000   -17.14000000    25.24000000
   C    -13.52000000   -18.35000000    22.46000000
   C    -14.74000000   -18.88000000    21.73000000
   N    -15.77000000   -18.13000000    21.34000000
   O    -14.93000000   -20.08000000    21.55000000
   H    -14.19000000   -18.34000000    25.28000000
   H    -14.25000000   -16.43000000    23.07000000
   H    -13.03000000   -19.25000000    22.83000000
   H    -12.93000000   -17.83000000    21.70000000
   H    -15.62000000   -17.14000000    21.17000000
   H    -16.64000000   -18.49000000    20.99000000
   N    -11.77000000   -15.91000000    23.37000000
   C    -10.57000000   -15.17000000    23.69000000
   C    -10.42000000   -13.96000000    22.78000000
   O     -9.34000000   -13.81000000    22.22000000
   C     -9.38000000   -16.13000000    23.77000000
   C     -8.87000000   -16.31000000    25.18000000
   C     -9.22000000   -17.45000000    25.92000000
   C     -8.00000000   -15.36000000    25.72000000
   C     -8.50000000   -17.80000000    27.07000000
   C     -7.27000000   -15.67000000    26.87000000
   C     -7.51000000   -16.90000000    27.52000000
   O     -6.84000000   -17.27000000    28.65000000
   H    -12.09000000   -15.92000000    22.41000000
   H    -10.62000000   -14.76000000    24.70000000
   H     -8.54000000   -15.93000000    23.11000000
   H     -9.66000000   -17.03000000    23.23000000
   H    -10.01000000   -18.15000000    25.72000000
   H     -7.95000000   -14.35000000    25.33000000
   H     -8.78000000   -18.62000000    27.71000000
   H     -6.53000000   -14.93000000    27.16000000
   H     -6.14000000   -16.63000000    28.80000000
   N    -11.48000000   -13.17000000    22.60000000
   C    -11.40000000   -12.09000000    21.64000000
   C    -10.53000000   -10.93000000    22.11000000
   O     -9.75000000   -10.45000000    21.30000000
   C    -12.81000000   -11.50000000    21.56000000
   C    -13.78000000   -12.41000000    20.81000000
   C    -15.20000000   -11.86000000    20.69000000
   O    -15.72000000   -11.39000000    21.73000000
   O    -15.78000000   -12.13000000    19.62000000
   H    -12.33000000   -13.25000000    23.15000000
   H    -11.08000000   -12.39000000    20.65000000
   H    -12.82000000   -10.52000000    21.09000000
   H    -13.19000000   -11.37000000    22.57000000
   H    -13.75000000   -13.32000000    21.41000000
   H    -13.35000000   -12.62000000    19.84000000
   N    -10.38000000   -10.49000000    23.36000000
   C    -11.20000000   -10.59000000    24.56000000
   C    -10.57000000   -11.36000000    25.71000000
   O     -9.45000000   -11.88000000    25.73000000
   C    -11.61000000    -9.23000000    25.10000000
   C    -12.20000000    -8.23000000    24.10000000
   C    -13.49000000    -8.84000000    23.58000000
   O    -14.32000000    -9.40000000    24.34000000
   O    -13.71000000    -8.69000000    22.36000000
   H     -9.63000000    -9.82000000    23.44000000
   H    -12.10000000   -11.18000000    24.39000000
   H    -10.73000000    -8.79000000    25.56000000
   H    -12.35000000    -9.45000000    25.87000000
   H    -11.49000000    -8.16000000    23.27000000
   H    -12.31000000    -7.25000000    24.56000000
   N    -11.46000000   -11.68000000    26.65000000
   C    -11.29000000   -12.38000000    27.91000000
   H    -10.59300000   -11.82800000    28.54000000
   H    -12.25200000   -12.45800000    28.41600000
   H    -10.89600000   -13.37900000    27.72100000
   H    -12.36000000   -11.49000000    26.24000000
  Ca    -16.28800000    -9.08800000    22.62000000
   O    -15.63800000    -8.74800000    19.83000000
   H    -15.01800000    -9.26800000    19.32000000
   H    -15.86800000    -8.02800000    19.25000000
   O    -18.27800000    -9.46800000    20.69000000
   H    -17.67800000    -9.19800000    20.00000000
   H    -19.05800000    -8.92800000    20.57000000

Ca 1.00



