%chk=loop2.holoCaM-CaMKII.run10.water2.chk
%nprocshared=20
%mem=10GB
%nosave
#b3lyp/svp scf=(tight,noincore,xqc) Test 
#IOP(5/87=12) Density=Current Pop=(MK,readradii) iop(6/33=2) iop(6/42=6)

loop2.holoCaM-CaMKII.run10.water2 

   -2  1 
   C     75.80000000    88.29000000    26.31000000
   C     76.85000000    89.35000000    26.63000000
   O     77.44000000    89.34000000    27.71000000
   H     74.91500000    88.77100000    25.89400000
   H     76.20500000    87.58400000    25.58400000
   H     75.52900000    87.75900000    27.22200000
   N     77.22000000    90.20000000    25.67000000
   C     78.22000000    91.22000000    25.91000000
   C     77.72000000    92.32000000    26.83000000
   O     76.56000000    92.70000000    26.74000000
   C     78.71000000    91.67000000    24.54000000
   C     79.87000000    92.65000000    24.66000000
   O     80.67000000    92.60000000    25.62000000
   O     80.06000000    93.50000000    23.76000000
   H     76.67000000    90.28000000    24.83000000
   H     79.07000000    90.74000000    26.40000000
   H     77.94000000    92.33000000    24.13000000
   H     79.02000000    90.87000000    23.87000000
   N     78.64000000    93.00000000    27.53000000
   C     78.41000000    94.23000000    28.26000000
   C     79.51000000    95.27000000    28.10000000
   O     79.45000000    96.27000000    28.82000000
   C     78.04000000    94.02000000    29.72000000
   H     79.52000000    92.50000000    27.51000000
   H     77.50000000    94.71000000    27.90000000
   H     77.71000000    94.91000000    30.26000000
   H     77.30000000    93.23000000    29.83000000
   H     78.97000000    93.73000000    30.19000000
   N     80.48000000    95.14000000    27.19000000
   C     81.62000000    96.04000000    27.17000000
   C     82.06000000    96.45000000    25.77000000
   O     82.56000000    97.57000000    25.72000000
   C     82.81000000    95.36000000    27.83000000
   C     83.03000000    93.91000000    27.41000000
   O     83.30000000    93.61000000    26.23000000
   O     82.84000000    92.98000000    28.22000000
   H     80.51000000    94.27000000    26.69000000
   H     81.46000000    97.02000000    27.63000000
   H     82.59000000    95.32000000    28.90000000
   H     83.75000000    95.91000000    27.75000000
   N     82.00000000    95.63000000    24.72000000
   C     82.56000000    95.85000000    23.40000000
   C     84.03000000    95.49000000    23.26000000
   O     84.70000000    96.09000000    22.42000000
   H     81.50000000    94.75000000    24.85000000
   H     82.45000000    96.90000000    23.15000000
   H     82.01000000    95.33000000    22.61000000
   N     84.55000000    94.51000000    24.01000000
   C     85.90000000    94.06000000    23.77000000
   C     86.13000000    92.97000000    22.73000000
   O     87.21000000    92.42000000    22.54000000
   C     86.41000000    93.70000000    25.16000000
   C     85.87000000    92.41000000    25.76000000
   N     86.39000000    92.06000000    26.94000000
   O     85.01000000    91.70000000    25.24000000
   H     83.96000000    94.09000000    24.71000000
   H     86.53000000    94.92000000    23.54000000
   H     86.18000000    94.47000000    25.90000000
   H     87.50000000    93.58000000    25.12000000
   H     87.15000000    92.58000000    27.35000000
   H     85.96000000    91.23000000    27.31000000
   N     85.08000000    92.50000000    22.06000000
   C     85.12000000    91.53000000    20.98000000
   C     85.18000000    90.09000000    21.45000000
   O     85.28000000    89.21000000    20.59000000
   H     84.15000000    92.84000000    22.27000000
   H     85.96000000    91.61000000    20.29000000
   H     84.19000000    91.72000000    20.44000000
   N     85.15000000    89.79000000    22.75000000
   C     85.32000000    88.42000000    23.18000000
   C     84.45000000    88.10000000    24.39000000
   O     84.24000000    88.96000000    25.24000000
   C     86.75000000    88.17000000    23.65000000
   C     87.77000000    88.21000000    22.52000000
   O     86.96000000    89.12000000    24.67000000
   H     84.79000000    90.46000000    23.42000000
   H     85.04000000    87.69000000    22.42000000
   H     86.73000000    87.19000000    24.14000000
   H     86.29000000    89.03000000    25.35000000
   H     88.74000000    87.77000000    22.77000000
   H     87.37000000    87.81000000    21.59000000
   H     88.04000000    89.24000000    22.31000000
   N     84.01000000    86.84000000    24.54000000
   C     83.31000000    86.31000000    25.69000000
   C     84.36000000    86.44000000    26.79000000
   O     85.47000000    85.94000000    26.66000000
   C     82.61000000    84.96000000    25.57000000
   C     81.59000000    85.12000000    24.44000000
   C     82.06000000    84.50000000    26.92000000
   C     81.07000000    83.73000000    24.07000000
   H     84.39000000    86.12000000    23.95000000
   H     82.49000000    87.02000000    25.84000000
   H     83.31000000    84.17000000    25.30000000
   H     82.06000000    85.43000000    23.51000000
   H     80.75000000    85.74000000    24.73000000
   H     81.36000000    85.24000000    27.31000000
   H     81.52000000    83.58000000    26.69000000
   H     82.92000000    84.38000000    27.58000000
   H     80.48000000    83.32000000    24.89000000
   H     80.51000000    83.87000000    23.14000000
   H     81.87000000    83.03000000    23.85000000
   N     83.97000000    87.03000000    27.92000000
   C     84.70000000    87.04000000    29.18000000
   C     83.99000000    86.00000000    30.03000000
   O     82.82000000    85.65000000    29.89000000
   C     84.61000000    88.45000000    29.76000000
   C     85.00000000    89.65000000    28.91000000
   O     84.33000000    90.05000000    27.94000000
   O     86.10000000    90.19000000    29.17000000
   H     83.05000000    87.44000000    27.92000000
   H     85.75000000    86.79000000    29.05000000
   H     85.07000000    88.36000000    30.74000000
   H     83.57000000    88.60000000    30.03000000
   N     84.59000000    85.55000000    31.14000000
   C     84.09000000    84.44000000    31.93000000
   C     82.81000000    84.70000000    32.72000000
   O     82.07000000    83.73000000    32.88000000
   C     85.12000000    83.89000000    32.92000000
   C     84.71000000    82.70000000    33.75000000
   C     84.37000000    83.02000000    35.06000000
   C     84.81000000    81.39000000    33.26000000
   C     84.09000000    82.00000000    35.98000000
   C     84.40000000    80.39000000    34.15000000
   C     84.06000000    80.70000000    35.47000000
   H     85.51000000    85.87000000    31.41000000
   H     83.89000000    83.68000000    31.18000000
   H     85.50000000    84.71000000    33.52000000
   H     85.98000000    83.43000000    32.42000000
   H     84.37000000    84.08000000    35.27000000
   H     85.07000000    81.10000000    32.25000000
   H     83.85000000    82.22000000    37.01000000
   H     84.51000000    79.35000000    33.85000000
   H     83.81000000    79.86000000    36.11000000
   N     82.50000000    85.92000000    33.14000000
   C     81.22000000    86.21000000    33.76000000
   C     80.06000000    86.20000000    32.78000000
   O     78.93000000    85.88000000    33.14000000
   C     81.30000000    87.55000000    34.49000000
   C     82.81000000    87.65000000    34.72000000
   C     83.42000000    86.97000000    33.51000000
   H     81.02000000    85.43000000    34.49000000
   H     80.85000000    88.35000000    33.90000000
   H     80.79000000    87.40000000    35.45000000
   H     83.03000000    88.72000000    34.77000000
   H     83.11000000    87.07000000    35.59000000
   H     83.43000000    87.67000000    32.66000000
   H     84.44000000    86.62000000    33.64000000
   N     80.39000000    86.49000000    31.51000000
   C     79.49000000    86.38000000    30.38000000
   C     79.23000000    84.96000000    29.92000000
   O     78.09000000    84.59000000    29.61000000
   C     80.02000000    87.21000000    29.21000000
   C     80.32000000    88.68000000    29.47000000
   C     80.92000000    89.42000000    28.29000000
   O     80.75000000    90.66000000    28.20000000
   O     81.58000000    88.81000000    27.41000000
   H     81.35000000    86.68000000    31.28000000
   H     78.50000000    86.73000000    30.67000000
   H     79.42000000    87.08000000    28.31000000
   H     80.98000000    86.76000000    28.95000000
   H     81.04000000    88.80000000    30.28000000
   H     79.46000000    89.23000000    29.84000000
   N     80.24000000    84.10000000    30.10000000
   C     80.08000000    82.67000000    29.99000000
   H     79.17200000    82.44900000    29.42900000
   H     80.94000000    82.24600000    29.47100000
   H     80.00600000    82.23400000    30.98600000
   H     81.15000000    84.53000000    30.14000000
  Ca     82.60000000    91.06000000    26.33000000
   O     81.02000000    89.35000000    24.96000000
   H     80.95000000    88.75000000    25.70000000
   H     80.16000000    89.32000000    24.55000000
   O     82.62000000    91.22000000    23.61000000
   H     82.13000000    90.40000000    23.52000000
   H     82.47000000    91.68000000    22.78000000

Ca 1.00



