%chk=loop1.holoCaM.run10.water2.chk
%nprocshared=20
%mem=10GB
%nosave
#b3lyp/svp scf=(tight,noincore,xqc) Test 
#IOP(5/87=12) Density=Current Pop=(MK,readradii) iop(6/33=2) iop(6/42=6)

loop1.holoCaM.run10.water2 

   0  1 
   C     43.01000000    50.31000000   -11.96000000
   C     41.76000000    50.40000000   -12.82000000
   O     41.45000000    49.55000000   -13.65000000
   H     43.78200000    50.96000000   -12.37200000
   H     42.77600000    50.62500000   -10.94300000
   H     43.37100000    49.28100000   -11.94800000
   N     41.08000000    51.54000000   -12.71000000
   C     39.88000000    52.00000000   -13.39000000
   C     40.29000000    52.59000000   -14.74000000
   O     41.02000000    53.58000000   -14.77000000
   C     39.06000000    52.96000000   -12.54000000
   C     37.79000000    53.44000000   -13.23000000
   O     37.31000000    52.83000000   -14.21000000
   O     37.28000000    54.46000000   -12.71000000
   H     41.28000000    52.15000000   -11.93000000
   H     39.20000000    51.18000000   -13.62000000
   H     39.65000000    53.85000000   -12.33000000
   H     38.69000000    52.44000000   -11.66000000
   N     39.90000000    51.99000000   -15.86000000
   C     40.49000000    52.11000000   -17.18000000
   C     39.77000000    53.12000000   -18.07000000
   O     40.43000000    53.76000000   -18.89000000
   C     40.58000000    50.73000000   -17.82000000
   C     41.43000000    49.65000000   -17.15000000
   C     42.94000000    49.83000000   -17.20000000
   C     43.43000000    50.72000000   -16.06000000
   N     44.89000000    50.89000000   -16.16000000
   H     39.11000000    51.37000000   -15.72000000
   H     41.51000000    52.49000000   -17.09000000
   H     41.00000000    50.90000000   -18.81000000
   H     39.63000000    50.23000000   -17.99000000
   H     41.20000000    48.74000000   -17.72000000
   H     41.02000000    49.40000000   -16.18000000
   H     43.12000000    50.30000000   -18.17000000
   H     43.31000000    48.81000000   -17.12000000
   H     43.22000000    50.23000000   -15.11000000
   H     42.91000000    51.67000000   -16.13000000
   H     45.07000000    51.66000000   -15.54000000
   H     45.42000000    50.08000000   -15.87000000
   H     45.25000000    51.04000000   -17.09000000
   N     38.48000000    53.34000000   -17.83000000
   C     37.76000000    54.40000000   -18.50000000
   C     37.50000000    55.56000000   -17.56000000
   O     36.99000000    56.56000000   -18.06000000
   C     36.53000000    53.83000000   -19.20000000
   C     35.71000000    52.88000000   -18.34000000
   O     35.71000000    53.02000000   -17.09000000
   O     35.05000000    51.96000000   -18.86000000
   H     37.94000000    52.71000000   -17.25000000
   H     38.30000000    54.92000000   -19.28000000
   H     36.87000000    53.22000000   -20.04000000
   H     35.88000000    54.63000000   -19.55000000
   N     37.93000000    55.47000000   -16.30000000
   C     37.68000000    56.44000000   -15.25000000
   C     36.24000000    56.87000000   -14.99000000
   O     35.88000000    58.00000000   -14.67000000
   H     38.39000000    54.65000000   -15.94000000
   H     38.28000000    57.29000000   -15.58000000
   H     38.13000000    56.22000000   -14.28000000
   N     35.33000000    55.90000000   -15.06000000
   C     33.98000000    56.07000000   -14.58000000
   C     33.71000000    56.15000000   -13.09000000
   O     32.61000000    56.62000000   -12.77000000
   C     33.06000000    55.11000000   -15.33000000
   C     33.28000000    53.67000000   -14.90000000
   O     32.86000000    52.77000000   -15.67000000
   O     33.86000000    53.31000000   -13.86000000
   H     35.52000000    55.01000000   -15.51000000
   H     33.72000000    57.06000000   -14.97000000
   H     33.22000000    55.12000000   -16.41000000
   H     32.03000000    55.37000000   -15.09000000
   N     34.75000000    55.83000000   -12.31000000
   C     34.68000000    55.81000000   -10.86000000
   C     34.20000000    54.48000000   -10.29000000
   O     33.80000000    54.49000000    -9.12000000
   H     35.57000000    55.50000000   -12.78000000
   H     33.92000000    56.49000000   -10.49000000
   H     35.61000000    56.09000000   -10.37000000
   N     34.09000000    53.39000000   -11.04000000
   C     33.96000000    51.99000000   -10.67000000
   C     34.97000000    51.09000000   -11.36000000
   O     35.53000000    51.46000000   -12.39000000
   C     32.52000000    51.49000000   -10.75000000
   C     31.50000000    52.36000000   -10.02000000
   O     32.12000000    51.53000000   -12.10000000
   H     34.24000000    53.53000000   -12.03000000
   H     34.24000000    51.85000000    -9.63000000
   H     32.47000000    50.45000000   -10.41000000
   H     32.12000000    52.46000000   -12.36000000
   H     30.56000000    51.84000000    -9.89000000
   H     31.83000000    52.56000000    -9.00000000
   H     31.27000000    53.29000000   -10.55000000
   N     35.07000000    49.81000000   -11.00000000
   C     35.90000000    48.77000000   -11.57000000
   C     35.00000000    47.60000000   -11.93000000
   O     34.13000000    47.30000000   -11.11000000
   C     37.19000000    48.43000000   -10.82000000
   C     38.02000000    49.69000000   -10.58000000
   C     38.13000000    47.46000000   -11.53000000
   C     39.20000000    49.54000000    -9.62000000
   H     34.46000000    49.58000000   -10.22000000
   H     36.25000000    49.18000000   -12.51000000
   H     36.92000000    47.93000000    -9.89000000
   H     37.36000000    50.44000000   -10.17000000
   H     38.28000000    50.12000000   -11.55000000
   H     38.94000000    47.98000000   -12.04000000
   H     38.67000000    46.88000000   -10.77000000
   H     37.68000000    46.71000000   -12.17000000
   H     39.81000000    50.44000000    -9.65000000
   H     38.82000000    49.31000000    -8.63000000
   H     39.89000000    48.74000000    -9.90000000
   N     35.11000000    47.03000000   -13.13000000
   C     34.36000000    45.95000000   -13.73000000
   C     35.27000000    44.83000000   -14.21000000
   O     36.48000000    45.04000000   -14.16000000
   C     33.44000000    46.46000000   -14.85000000
   C     34.22000000    46.85000000   -16.10000000
   O     32.50000000    45.52000000   -15.31000000
   H     35.94000000    47.37000000   -13.60000000
   H     33.70000000    45.48000000   -13.00000000
   H     32.96000000    47.38000000   -14.51000000
   H     31.86000000    46.05000000   -15.78000000
   H     34.70000000    45.94000000   -16.46000000
   H     33.70000000    47.22000000   -16.98000000
   H     35.01000000    47.55000000   -15.83000000
   N     34.78000000    43.67000000   -14.64000000
   C     35.46000000    42.43000000   -14.95000000
   C     36.51000000    42.70000000   -16.02000000
   O     37.65000000    42.27000000   -15.90000000
   C     34.44000000    41.40000000   -15.43000000
   C     33.62000000    40.85000000   -14.27000000
   O     33.54000000    41.97000000   -16.35000000
   H     33.79000000    43.64000000   -14.82000000
   H     35.95000000    41.97000000   -14.09000000
   H     34.94000000    40.62000000   -16.01000000
   H     33.00000000    41.23000000   -16.63000000
   H     33.35000000    39.80000000   -14.40000000
   H     34.13000000    40.97000000   -13.32000000
   H     32.80000000    41.56000000   -14.16000000
   N     36.17000000    43.53000000   -17.01000000
   C     36.95000000    43.82000000   -18.19000000
   C     38.24000000    44.56000000   -17.89000000
   O     39.26000000    44.32000000   -18.53000000
   C     36.11000000    44.58000000   -19.22000000
   C     34.69000000    44.05000000   -19.41000000
   C     34.65000000    42.67000000   -20.05000000
   C     33.22000000    42.14000000   -20.12000000
   N     33.18000000    40.77000000   -20.63000000
   H     35.23000000    43.89000000   -17.01000000
   H     37.21000000    42.87000000   -18.65000000
   H     36.57000000    44.40000000   -20.19000000
   H     36.13000000    45.64000000   -19.00000000
   H     34.09000000    44.81000000   -19.92000000
   H     34.24000000    43.98000000   -18.42000000
   H     35.17000000    42.04000000   -19.34000000
   H     35.13000000    42.62000000   -21.03000000
   H     32.47000000    42.72000000   -20.66000000
   H     32.95000000    42.14000000   -19.06000000
   H     33.72000000    40.64000000   -21.48000000
   H     33.52000000    40.14000000   -19.91000000
   H     32.23000000    40.46000000   -20.78000000
   N     38.27000000    45.30000000   -16.78000000
   C     39.38000000    46.02000000   -16.19000000
   C     40.05000000    45.17000000   -15.12000000
   O     41.28000000    45.11000000   -15.07000000
   C     38.85000000    47.30000000   -15.54000000
   C     37.89000000    48.08000000   -16.44000000
   C     37.30000000    49.31000000   -15.76000000
   O     36.41000000    49.22000000   -14.90000000
   O     37.50000000    50.44000000   -16.26000000
   H     37.36000000    45.43000000   -16.36000000
   H     40.12000000    46.13000000   -16.98000000
   H     39.68000000    47.97000000   -15.31000000
   H     38.25000000    47.03000000   -14.67000000
   H     37.07000000    47.47000000   -16.81000000
   H     38.45000000    48.28000000   -17.36000000
   N     39.30000000    44.53000000   -14.23000000
   C     39.73000000    43.64000000   -13.17000000
   H     40.61700000    44.05100000   -12.68900000
   H     38.93200000    43.53800000   -12.43400000
   H     39.96500000    42.66200000   -13.58900000
   H     38.30000000    44.66000000   -14.32000000
  Ca     35.31000000    51.54000000   -14.94700000
   O     33.39000000    49.96000000   -13.87700000
   H     32.89000000    50.57000000   -13.33700000
   H     32.76000000    49.62000000   -14.50700000
   O     34.68000000    50.13000000   -17.21700000
   H     33.93000000    49.70000000   -17.61700000
   H     34.90000000    50.84000000   -17.81700000

Ca 1.00



