%chk=loop2.apoCaM-CA-Ng.Init295.run59.water4.chk
%nprocshared=20
%mem=10GB
%nosave
#b3lyp/svp scf=(tight,noincore,xqc) Test 
#IOP(5/87=12) Density=Current Pop=(MK,readradii) iop(6/33=2) iop(6/42=6)

loop2.apoCaM-CA-Ng.Init295.run59.water4 

   -2  1 
   C     81.15000000    83.41000000    41.63000000
   C     82.05000000    83.55000000    42.85000000
   O     82.13000000    84.62000000    43.45000000
   H     80.26400000    84.03100000    41.76000000
   H     81.69100000    83.73100000    40.74000000
   H     80.85000000    82.36800000    41.51700000
   N     82.86000000    82.55000000    43.20000000
   C     84.03000000    82.59000000    44.07000000
   C     83.69000000    82.44000000    45.54000000
   O     84.49000000    81.99000000    46.35000000
   C     85.05000000    81.57000000    43.58000000
   C     86.52000000    81.74000000    43.96000000
   O     87.25000000    80.75000000    43.79000000
   O     86.90000000    82.78000000    44.54000000
   H     82.65000000    81.61000000    42.89000000
   H     84.47000000    83.59000000    43.99000000
   H     85.05000000    81.52000000    42.50000000
   H     84.78000000    80.56000000    43.89000000
   N     82.41000000    82.59000000    45.89000000
   C     81.81000000    82.52000000    47.21000000
   C     80.30000000    82.37000000    47.13000000
   O     79.77000000    82.88000000    46.15000000
   C     82.22000000    83.77000000    47.99000000
   H     81.80000000    82.79000000    45.11000000
   H     82.26000000    81.62000000    47.63000000
   H     82.00000000    83.65000000    49.05000000
   H     83.29000000    83.91000000    47.87000000
   H     81.75000000    84.69000000    47.64000000
   N     79.49000000    81.83000000    48.05000000
   C     79.88000000    81.15000000    49.27000000
   C     80.00000000    79.63000000    49.19000000
   O     79.48000000    78.95000000    48.31000000
   C     78.95000000    81.60000000    50.39000000
   C     78.69000000    83.09000000    50.56000000
   O     79.69000000    83.79000000    50.85000000
   O     77.52000000    83.52000000    50.53000000
   H     78.54000000    81.98000000    47.75000000
   H     80.85000000    81.63000000    49.40000000
   H     79.40000000    81.22000000    51.31000000
   H     78.03000000    81.02000000    50.31000000
   N     80.76000000    79.06000000    50.12000000
   C     81.22000000    77.69000000    49.95000000
   C     82.03000000    77.37000000    48.70000000
   O     82.74000000    78.26000000    48.25000000
   H     81.35000000    79.64000000    50.70000000
   H     80.38000000    77.00000000    50.05000000
   H     81.79000000    77.44000000    50.84000000
   N     81.97000000    76.15000000    48.15000000
   C     81.33000000    74.97000000    48.68000000
   C     79.82000000    74.87000000    48.52000000
   O     79.19000000    73.92000000    48.97000000
   C     82.09000000    73.74000000    48.18000000
   C     82.33000000    72.69000000    49.25000000
   N     81.28000000    72.29000000    49.97000000
   O     83.46000000    72.21000000    49.36000000
   H     82.49000000    76.10000000    47.28000000
   H     81.48000000    74.91000000    49.76000000
   H     83.05000000    74.10000000    47.81000000
   H     81.50000000    73.17000000    47.47000000
   H     80.33000000    72.60000000    49.82000000
   H     81.39000000    71.43000000    50.49000000
   N     79.23000000    75.86000000    47.84000000
   C     77.83000000    75.88000000    47.48000000
   C     76.83000000    76.24000000    48.57000000
   O     75.79000000    75.58000000    48.61000000
   H     79.76000000    76.71000000    47.67000000
   H     77.55000000    74.87000000    47.15000000
   H     77.76000000    76.61000000    46.68000000
   N     77.13000000    77.26000000    49.38000000
   C     76.48000000    77.64000000    50.62000000
   C     75.69000000    78.93000000    50.52000000
   O     75.83000000    79.79000000    51.39000000
   C     77.40000000    77.67000000    51.83000000
   C     76.74000000    77.46000000    53.20000000
   O     78.32000000    76.61000000    51.87000000
   H     77.97000000    77.79000000    49.20000000
   H     75.79000000    76.82000000    50.79000000
   H     77.95000000    78.61000000    51.81000000
   H     78.93000000    76.89000000    52.55000000
   H     76.28000000    76.49000000    53.34000000
   H     77.48000000    77.61000000    53.98000000
   H     75.99000000    78.23000000    53.34000000
   N     74.88000000    79.07000000    49.46000000
   C     74.26000000    80.29000000    48.98000000
   C     72.81000000    80.51000000    49.39000000
   O     72.12000000    79.58000000    49.79000000
   C     74.44000000    80.48000000    47.48000000
   C     75.81000000    80.94000000    46.98000000
   C     73.86000000    79.24000000    46.81000000
   C     75.99000000    81.12000000    45.48000000
   H     74.84000000    78.23000000    48.90000000
   H     74.72000000    81.15000000    49.45000000
   H     73.82000000    81.33000000    47.15000000
   H     76.51000000    80.22000000    47.39000000
   H     75.98000000    81.87000000    47.52000000
   H     74.52000000    78.39000000    46.98000000
   H     72.90000000    78.88000000    47.19000000
   H     73.83000000    79.29000000    45.72000000
   H     75.87000000    80.14000000    45.00000000
   H     75.23000000    81.75000000    45.04000000
   H     77.00000000    81.46000000    45.23000000
   N     72.30000000    81.74000000    49.30000000
   C     70.95000000    82.09000000    49.68000000
   C     70.10000000    82.12000000    48.41000000
   O     70.58000000    82.00000000    47.29000000
   C     70.87000000    83.50000000    50.26000000
   C     71.94000000    83.83000000    51.29000000
   O     72.03000000    83.12000000    52.32000000
   O     72.72000000    84.77000000    51.03000000
   H     72.95000000    82.49000000    49.07000000
   H     70.57000000    81.29000000    50.30000000
   H     69.92000000    83.56000000    50.80000000
   H     70.84000000    84.20000000    49.43000000
   N     68.77000000    82.12000000    48.54000000
   C     67.78000000    82.13000000    47.48000000
   C     68.18000000    82.95000000    46.26000000
   O     68.53000000    82.40000000    45.22000000
   C     67.35000000    80.71000000    47.16000000
   C     65.87000000    80.53000000    46.96000000
   C     65.37000000    80.30000000    45.67000000
   C     64.99000000    80.52000000    48.04000000
   C     64.01000000    80.02000000    45.49000000
   C     63.63000000    80.21000000    47.87000000
   C     63.15000000    79.91000000    46.59000000
   H     68.36000000    82.11000000    49.46000000
   H     66.96000000    82.60000000    48.02000000
   H     67.54000000    80.18000000    48.09000000
   H     67.96000000    80.21000000    46.40000000
   H     66.09000000    80.16000000    44.88000000
   H     65.29000000    80.93000000    49.00000000
   H     63.61000000    79.81000000    44.51000000
   H     62.96000000    80.24000000    48.71000000
   H     62.10000000    79.65000000    46.49000000
   N     68.00000000    84.28000000    46.30000000
   C     68.27000000    85.12000000    45.16000000
   C     69.71000000    85.08000000    44.69000000
   O     70.08000000    85.63000000    43.66000000
   C     68.03000000    86.53000000    45.71000000
   C     67.13000000    86.35000000    46.93000000
   C     67.70000000    85.05000000    47.49000000
   H     67.65000000    84.95000000    44.28000000
   H     68.97000000    86.99000000    46.00000000
   H     67.53000000    87.06000000    44.91000000
   H     67.10000000    87.22000000    47.58000000
   H     66.20000000    86.14000000    46.40000000
   H     68.59000000    85.33000000    48.06000000
   H     67.01000000    84.63000000    48.22000000
   N     70.60000000    84.49000000    45.50000000
   C     72.01000000    84.26000000    45.27000000
   C     72.26000000    82.98000000    44.50000000
   O     73.23000000    82.92000000    43.75000000
   C     72.80000000    84.35000000    46.57000000
   C     74.33000000    84.44000000    46.63000000
   C     74.78000000    84.53000000    48.08000000
   O     74.66000000    83.55000000    48.84000000
   O     75.38000000    85.50000000    48.60000000
   H     70.31000000    84.05000000    46.37000000
   H     72.32000000    84.97000000    44.50000000
   H     72.50000000    83.48000000    47.15000000
   H     72.44000000    85.24000000    47.08000000
   H     74.56000000    85.35000000    46.07000000
   H     74.78000000    83.56000000    46.18000000
   N     71.42000000    81.96000000    44.67000000
   C     71.43000000    80.78000000    43.82000000
   H     72.14300000    80.92400000    43.00800000
   H     71.72100000    79.91000000    44.40900000
   H     70.43500000    80.62200000    43.40500000
   H     70.78000000    82.05000000    45.45000000
  Ca     75.36000000    84.85000000    51.18000000
   O     75.45000000    87.64000000    50.85000000
   H     74.92000000    88.30000000    51.29000000
   H     76.15000000    88.13000000    50.41000000
   O     74.51000000    82.37000000    51.90000000
   H     73.65000000    82.52000000    52.29000000
   H     74.48000000    81.47000000    51.59000000
   O     77.94000000    85.97000000    51.65000000
   H     78.62000000    85.30000000    51.58000000
   H     78.34000000    86.75000000    51.27000000
   O     76.54000000    83.78000000    53.67000000
   H     77.31000000    84.11000000    54.13000000
   H     76.70000000    82.83000000    53.59000000

Ca 1.00



