%chk=loop2.apoCaM-CA-Ng.Init31.run78.water6.chk
%nprocshared=20
%mem=10GB
%nosave
#b3lyp/svp scf=(tight,noincore,xqc) Test 
#IOP(5/87=12) Density=Current Pop=(MK,readradii) iop(6/33=2) iop(6/42=6)

loop2.apoCaM-CA-Ng.Init31.run78.water6 

   -2  1 
   C     70.61000000    34.32000000    12.11000000
   C     69.53000000    33.43000000    12.71000000
   O     68.56000000    34.05000000    13.13000000
   H     71.51500000    33.73400000    11.95000000
   H     70.26400000    34.72000000    11.15700000
   H     70.82500000    35.14200000    12.79300000
   N     69.57000000    32.10000000    12.68000000
   C     70.60000000    31.14000000    12.31000000
   C     70.63000000    30.03000000    13.34000000
   O     69.62000000    29.62000000    13.90000000
   C     70.22000000    30.55000000    10.95000000
   C     68.77000000    30.12000000    10.87000000
   O     68.18000000    29.20000000    11.48000000
   O     68.04000000    30.81000000    10.12000000
   H     68.74000000    31.67000000    13.06000000
   H     71.58000000    31.59000000    12.15000000
   H     70.80000000    29.63000000    10.86000000
   H     70.56000000    31.11000000    10.08000000
   N     71.83000000    29.48000000    13.59000000
   C     71.97000000    28.21000000    14.28000000
   C     71.82000000    28.25000000    15.79000000
   O     72.70000000    27.65000000    16.41000000
   C     73.32000000    27.77000000    13.71000000
   H     72.64000000    29.90000000    13.16000000
   H     71.16000000    27.55000000    13.97000000
   H     73.58000000    26.75000000    14.01000000
   H     73.44000000    27.77000000    12.63000000
   H     74.11000000    28.36000000    14.17000000
   N     70.71000000    28.75000000    16.35000000
   C     70.38000000    28.68000000    17.76000000
   C     70.05000000    27.22000000    18.07000000
   O     69.58000000    26.45000000    17.24000000
   C     69.14000000    29.48000000    18.14000000
   C     67.90000000    29.43000000    17.26000000
   O     68.01000000    29.49000000    16.02000000
   O     66.74000000    29.58000000    17.72000000
   H     70.03000000    29.09000000    15.68000000
   H     71.16000000    29.04000000    18.42000000
   H     69.39000000    30.53000000    18.21000000
   H     68.94000000    29.09000000    19.14000000
   N     70.29000000    26.82000000    19.32000000
   C     70.21000000    25.41000000    19.64000000
   C     68.79000000    24.93000000    19.92000000
   O     67.97000000    25.76000000    20.32000000
   H     70.39000000    27.44000000    20.11000000
   H     70.73000000    25.23000000    20.58000000
   H     70.61000000    24.69000000    18.93000000
   N     68.47000000    23.66000000    19.68000000
   C     67.17000000    23.02000000    19.81000000
   C     66.53000000    23.21000000    21.18000000
   O     65.32000000    23.46000000    21.18000000
   C     67.27000000    21.57000000    19.36000000
   C     65.85000000    21.03000000    19.24000000
   N     65.42000000    20.28000000    20.27000000
   O     65.12000000    21.37000000    18.32000000
   H     69.17000000    23.18000000    19.14000000
   H     66.55000000    23.59000000    19.12000000
   H     67.87000000    20.92000000    20.00000000
   H     67.63000000    21.57000000    18.33000000
   H     66.15000000    19.97000000    20.90000000
   H     64.44000000    20.05000000    20.32000000
   N     67.21000000    23.09000000    22.32000000
   C     66.53000000    23.08000000    23.60000000
   C     67.28000000    22.08000000    24.48000000
   O     67.91000000    21.14000000    24.02000000
   H     68.21000000    23.01000000    22.23000000
   H     65.51000000    22.71000000    23.50000000
   H     66.55000000    24.06000000    24.08000000
   N     67.27000000    22.27000000    25.80000000
   C     66.64000000    23.32000000    26.58000000
   C     67.41000000    24.63000000    26.62000000
   O     66.84000000    25.70000000    26.82000000
   C     66.13000000    22.91000000    27.96000000
   C     65.39000000    21.58000000    27.97000000
   O     67.20000000    22.83000000    28.87000000
   H     67.89000000    21.65000000    26.28000000
   H     65.65000000    23.50000000    26.15000000
   H     65.54000000    23.72000000    28.41000000
   H     66.78000000    22.86000000    29.73000000
   H     64.71000000    21.65000000    28.82000000
   H     64.67000000    21.48000000    27.15000000
   H     65.97000000    20.66000000    28.10000000
   N     68.73000000    24.61000000    26.44000000
   C     69.65000000    25.73000000    26.53000000
   C     69.39000000    26.51000000    27.81000000
   O     68.79000000    27.58000000    27.79000000
   C     69.72000000    26.63000000    25.30000000
   C     69.50000000    25.91000000    23.97000000
   C     70.96000000    27.52000000    25.19000000
   C     70.57000000    24.87000000    23.66000000
   H     69.16000000    23.70000000    26.32000000
   H     70.62000000    25.24000000    26.55000000
   H     68.91000000    27.35000000    25.26000000
   H     69.62000000    26.67000000    23.20000000
   H     68.44000000    25.67000000    23.95000000
   H     71.14000000    28.16000000    26.05000000
   H     71.87000000    26.95000000    25.06000000
   H     70.83000000    28.18000000    24.33000000
   H     70.13000000    23.90000000    23.91000000
   H     70.94000000    24.79000000    22.64000000
   H     71.45000000    24.93000000    24.29000000
   N     69.99000000    26.09000000    28.93000000
   C     70.71000000    24.84000000    29.07000000
   C     72.19000000    24.95000000    28.72000000
   O     72.62000000    24.33000000    27.75000000
   C     70.53000000    24.24000000    30.46000000
   C     70.80000000    25.13000000    31.67000000
   O     71.09000000    26.33000000    31.44000000
   O     70.52000000    24.68000000    32.80000000
   H     69.78000000    26.57000000    29.80000000
   H     70.25000000    24.11000000    28.41000000
   H     71.23000000    23.41000000    30.61000000
   H     69.50000000    23.92000000    30.54000000
   N     72.94000000    25.85000000    29.37000000
   C     74.33000000    26.14000000    29.12000000
   C     75.23000000    25.81000000    30.31000000
   O     74.74000000    25.73000000    31.44000000
   C     74.47000000    27.54000000    28.55000000
   C     73.79000000    28.70000000    29.25000000
   C     72.40000000    28.82000000    29.25000000
   C     74.55000000    29.78000000    29.71000000
   C     71.76000000    29.96000000    29.75000000
   C     73.93000000    30.93000000    30.21000000
   C     72.53000000    31.05000000    30.15000000
   H     72.57000000    26.11000000    30.28000000
   H     74.62000000    25.45000000    28.32000000
   H     73.91000000    27.48000000    27.61000000
   H     75.51000000    27.80000000    28.33000000
   H     71.73000000    28.03000000    28.94000000
   H     75.63000000    29.70000000    29.68000000
   H     70.69000000    29.99000000    29.87000000
   H     74.56000000    31.72000000    30.57000000
   H     72.15000000    31.95000000    30.61000000
   N     76.53000000    25.54000000    30.19000000
   C     77.39000000    25.70000000    29.03000000
   C     77.18000000    24.76000000    27.85000000
   O     76.32000000    23.89000000    27.92000000
   C     78.80000000    25.48000000    29.58000000
   C     78.60000000    24.50000000    30.73000000
   C     77.34000000    25.13000000    31.31000000
   H     77.37000000    26.71000000    28.64000000
   H     79.61000000    25.21000000    28.90000000
   H     79.06000000    26.37000000    30.16000000
   H     78.45000000    23.47000000    30.43000000
   H     79.35000000    24.59000000    31.51000000
   H     76.75000000    24.42000000    31.88000000
   H     77.61000000    25.99000000    31.94000000
   N     77.90000000    24.96000000    26.74000000
   C     78.01000000    24.03000000    25.64000000
   C     78.26000000    24.72000000    24.31000000
   O     78.97000000    24.22000000    23.44000000
   C     79.14000000    23.04000000    25.89000000
   C     79.12000000    22.45000000    27.30000000
   C     80.10000000    21.30000000    27.48000000
   O     80.19000000    20.78000000    28.61000000
   O     80.75000000    20.80000000    26.53000000
   H     78.54000000    25.75000000    26.71000000
   H     77.08000000    23.47000000    25.53000000
   H     80.08000000    23.57000000    25.76000000
   H     79.03000000    22.22000000    25.18000000
   H     78.20000000    21.97000000    27.63000000
   H     79.39000000    23.21000000    28.04000000
   N     77.79000000    25.94000000    24.03000000
   C     76.85000000    26.84000000    24.65000000
   H     75.91600000    26.31200000    24.84300000
   H     77.26200000    27.20500000    25.59100000
   H     76.66000000    27.68200000    23.98500000
   H     78.16000000    26.21000000    23.12000000
  Ca     67.14000000    28.53000000    13.77000000
   O     66.45000000    31.19000000    13.89000000
   H     66.01000000    31.64000000    13.17000000
   H     66.23000000    31.71000000    14.67000000
   O     68.87000000    26.80000000    14.58000000
   H     69.32000000    26.06000000    14.17000000
   H     68.98000000    26.65000000    15.52000000
   O     67.11000000    26.45000000    12.02000000
   H     66.22000000    26.23000000    11.73000000
   H     67.66000000    26.25000000    11.26000000
   O     65.01000000    28.94000000    12.16000000
   H     64.20000000    29.37000000    12.41000000
   H     65.25000000    29.34000000    11.32000000
   O     65.99000000    26.54000000    15.22000000
   H     65.26000000    26.39000000    15.83000000
   H     66.50000000    25.73000000    15.27000000
   O     64.88000000    28.98000000    15.51000000
   H     64.21000000    29.66000000    15.42000000
   H     65.43000000    29.27000000    16.24000000

Ca 1.00



