%chk=loop2.holoCaM.run64.water3.chk
%nprocshared=20
%mem=10GB
%nosave
#b3lyp/svp scf=(tight,noincore,xqc) Test 
#IOP(5/87=12) Density=Current Pop=(MK,readradii) iop(6/33=2) iop(6/42=6)

loop2.holoCaM.run64.water3 

   -2  1 
   C     56.78000000    61.12000000    18.26000000
   C     55.54000000    61.82000000    18.80000000
   O     55.59000000    62.39000000    19.88000000
   H     57.60900000    61.26600000    18.95200000
   H     56.57900000    60.05400000    18.15500000
   H     57.04000000    61.53900000    17.28800000
   N     54.39000000    61.66000000    18.13000000
   C     53.08000000    62.13000000    18.53000000
   C     52.54000000    61.31000000    19.69000000
   O     52.18000000    60.15000000    19.47000000
   C     52.15000000    62.12000000    17.32000000
   C     50.81000000    62.79000000    17.59000000
   O     49.91000000    62.70000000    16.72000000
   O     50.61000000    63.49000000    18.60000000
   H     54.38000000    61.04000000    17.33000000
   H     53.21000000    63.13000000    18.95000000
   H     52.07000000    61.10000000    16.95000000
   H     52.69000000    62.61000000    16.51000000
   N     52.44000000    61.78000000    20.94000000
   C     51.94000000    61.10000000    22.12000000
   C     50.55000000    60.49000000    21.99000000
   O     50.25000000    59.51000000    22.66000000
   C     51.79000000    62.20000000    23.17000000
   H     52.69000000    62.74000000    21.09000000
   H     52.60000000    60.34000000    22.53000000
   H     52.77000000    62.65000000    23.34000000
   H     51.11000000    63.02000000    22.91000000
   H     51.46000000    61.91000000    24.17000000
   N     49.65000000    60.95000000    21.12000000
   C     48.36000000    60.38000000    20.78000000
   C     48.14000000    59.85000000    19.38000000
   O     47.30000000    58.96000000    19.22000000
   C     47.28000000    61.38000000    21.16000000
   C     47.38000000    62.74000000    20.48000000
   O     46.67000000    63.02000000    19.49000000
   O     48.22000000    63.57000000    20.90000000
   H     49.91000000    61.82000000    20.66000000
   H     48.18000000    59.43000000    21.29000000
   H     47.22000000    61.48000000    22.25000000
   H     46.31000000    60.94000000    20.91000000
   N     48.89000000    60.28000000    18.36000000
   C     48.78000000    59.76000000    17.01000000
   C     47.67000000    60.33000000    16.14000000
   O     47.54000000    59.79000000    15.04000000
   H     49.45000000    61.11000000    18.48000000
   H     48.69000000    58.68000000    17.09000000
   H     49.66000000    59.91000000    16.39000000
   N     46.88000000    61.34000000    16.52000000
   C     45.95000000    61.85000000    15.54000000
   C     46.63000000    62.70000000    14.48000000
   O     45.92000000    63.13000000    13.57000000
   C     44.87000000    62.66000000    16.24000000
   C     43.96000000    61.84000000    17.15000000
   N     44.21000000    61.70000000    18.45000000
   O     42.98000000    61.24000000    16.72000000
   H     46.84000000    61.78000000    17.43000000
   H     45.36000000    61.09000000    15.03000000
   H     44.23000000    63.15000000    15.51000000
   H     45.35000000    63.32000000    16.97000000
   H     45.01000000    62.10000000    18.92000000
   H     43.60000000    61.08000000    18.97000000
   N     47.94000000    62.92000000    14.51000000
   C     48.70000000    63.70000000    13.55000000
   C     48.85000000    65.17000000    13.93000000
   O     49.16000000    65.94000000    13.03000000
   H     48.47000000    62.52000000    15.27000000
   H     48.29000000    63.66000000    12.55000000
   H     49.66000000    63.20000000    13.42000000
   N     48.60000000    65.63000000    15.16000000
   C     48.52000000    67.00000000    15.63000000
   C     49.71000000    67.25000000    16.55000000
   O     49.74000000    66.93000000    17.73000000
   C     47.22000000    67.24000000    16.40000000
   C     46.84000000    68.69000000    16.66000000
   O     46.12000000    66.75000000    15.66000000
   H     48.37000000    64.98000000    15.89000000
   H     48.54000000    67.70000000    14.80000000
   H     47.12000000    66.75000000    17.37000000
   H     45.35000000    66.98000000    16.18000000
   H     47.56000000    69.06000000    17.39000000
   H     46.90000000    69.27000000    15.73000000
   H     45.86000000    68.79000000    17.12000000
   N     50.81000000    67.71000000    15.94000000
   C     52.07000000    67.81000000    16.65000000
   C     52.14000000    69.04000000    17.55000000
   O     52.12000000    70.17000000    17.07000000
   C     53.25000000    67.75000000    15.69000000
   C     53.21000000    66.89000000    14.43000000
   C     54.53000000    67.38000000    16.43000000
   C     52.84000000    65.45000000    14.75000000
   H     50.77000000    68.02000000    14.98000000
   H     52.13000000    67.00000000    17.37000000
   H     53.43000000    68.76000000    15.30000000
   H     54.13000000    67.00000000    13.86000000
   H     52.47000000    67.34000000    13.76000000
   H     54.53000000    66.35000000    16.81000000
   H     55.39000000    67.44000000    15.76000000
   H     54.68000000    67.93000000    17.36000000
   H     51.88000000    65.37000000    15.27000000
   H     52.70000000    64.97000000    13.78000000
   H     53.71000000    64.99000000    15.20000000
   N     52.41000000    68.82000000    18.84000000
   C     52.76000000    69.80000000    19.85000000
   C     54.27000000    70.02000000    19.87000000
   O     55.01000000    69.20000000    19.34000000
   C     52.28000000    69.31000000    21.21000000
   C     50.80000000    68.94000000    21.28000000
   O     50.51000000    67.72000000    21.30000000
   O     49.93000000    69.83000000    21.39000000
   H     52.46000000    67.85000000    19.11000000
   H     52.36000000    70.75000000    19.52000000
   H     52.46000000    70.10000000    21.93000000
   H     53.03000000    68.57000000    21.47000000
   N     54.76000000    71.14000000    20.42000000
   C     56.15000000    71.54000000    20.27000000
   C     57.18000000    70.51000000    20.68000000
   O     58.07000000    70.24000000    19.87000000
   C     56.31000000    72.86000000    21.01000000
   C     57.72000000    73.40000000    21.09000000
   C     58.32000000    74.15000000    20.07000000
   C     58.46000000    73.25000000    22.26000000
   C     59.62000000    74.66000000    20.13000000
   C     59.73000000    73.83000000    22.38000000
   C     60.30000000    74.58000000    21.35000000
   H     54.10000000    71.76000000    20.86000000
   H     56.30000000    71.64000000    19.19000000
   H     55.93000000    72.80000000    22.03000000
   H     55.74000000    73.64000000    20.51000000
   H     57.77000000    74.34000000    19.16000000
   H     58.00000000    72.76000000    23.11000000
   H     60.08000000    75.15000000    19.28000000
   H     60.22000000    73.84000000    23.35000000
   H     61.30000000    74.99000000    21.46000000
   N     57.15000000    69.88000000    21.86000000
   C     58.09000000    68.84000000    22.21000000
   C     58.16000000    67.59000000    21.35000000
   O     59.21000000    66.94000000    21.35000000
   C     57.85000000    68.52000000    23.69000000
   C     56.36000000    68.82000000    23.84000000
   C     56.14000000    70.00000000    22.89000000
   H     59.11000000    69.21000000    22.10000000
   H     58.02000000    67.47000000    23.90000000
   H     58.45000000    69.15000000    24.35000000
   H     55.77000000    67.97000000    23.49000000
   H     56.10000000    69.07000000    24.87000000
   H     55.15000000    69.92000000    22.43000000
   H     56.30000000    70.84000000    23.56000000
   N     57.02000000    67.25000000    20.76000000
   C     56.87000000    66.18000000    19.79000000
   C     57.43000000    66.51000000    18.42000000
   O     58.10000000    65.76000000    17.71000000
   C     55.41000000    65.82000000    19.56000000
   C     54.54000000    65.54000000    20.78000000
   C     53.06000000    65.41000000    20.46000000
   O     52.56000000    66.05000000    19.51000000
   O     52.32000000    64.68000000    21.15000000
   H     56.22000000    67.87000000    20.81000000
   H     57.28000000    65.27000000    20.23000000
   H     55.36000000    64.90000000    18.97000000
   H     54.96000000    66.61000000    18.96000000
   H     54.53000000    66.42000000    21.44000000
   H     54.95000000    64.63000000    21.22000000
   N     57.20000000    67.76000000    18.00000000
   C     57.82000000    68.45000000    16.89000000
   H     58.82700000    68.06100000    16.73800000
   H     57.23000000    68.29100000    15.98700000
   H     57.87200000    69.51700000    17.10800000
   H     56.63000000    68.35000000    18.59000000
  Ca     49.94000000    65.40000000    20.15000000
   O     48.10000000    64.34000000    17.95000000
   H     48.76000000    63.73000000    17.61000000
   H     47.57000000    63.82000000    18.54000000
   O     47.63000000    66.67000000    20.07000000
   H     47.10000000    67.45000000    19.93000000
   H     47.16000000    65.97000000    19.61000000
   O     49.84000000    65.73000000    22.78000000
   H     49.98000000    65.63000000    23.72000000
   H     50.18000000    66.60000000    22.57000000

Ca 1.00



