%chk=loop1.apoCaM-CA-Ng.Init295.run62.water6.chk
%nprocshared=20
%mem=10GB
%nosave
#b3lyp/svp scf=(tight,noincore,xqc) Test 
#IOP(5/87=12) Density=Current Pop=(MK,readradii) iop(6/33=2) iop(6/42=6)

loop1.apoCaM-CA-Ng.Init295.run62.water6 

   0  1 
   C     63.03000000    75.16000000    49.39000000
   C     61.99000000    76.27000000    49.34000000
   O     60.83000000    75.93000000    49.12000000
   H     63.92600000    75.52500000    49.89100000
   H     62.62800000    74.30900000    49.94000000
   H     63.28200000    74.85100000    48.37500000
   N     62.39000000    77.51000000    49.65000000
   C     61.44000000    78.59000000    49.82000000
   C     61.67000000    79.80000000    48.94000000
   O     62.71000000    80.02000000    48.31000000
   C     61.41000000    78.98000000    51.30000000
   C     61.03000000    77.96000000    52.35000000
   O     61.91000000    77.62000000    53.18000000
   O     59.87000000    77.50000000    52.40000000
   H     63.36000000    77.66000000    49.88000000
   H     60.43000000    78.25000000    49.57000000
   H     60.73000000    79.82000000    51.44000000
   H     62.39000000    79.36000000    51.60000000
   N     60.71000000    80.74000000    48.94000000
   C     60.66000000    81.97000000    48.17000000
   C     60.72000000    83.14000000    49.14000000
   O     61.28000000    84.21000000    48.87000000
   C     59.32000000    81.93000000    47.43000000
   C     59.03000000    83.27000000    46.77000000
   C     57.76000000    83.19000000    45.91000000
   C     57.21000000    84.55000000    45.47000000
   N     55.87000000    84.43000000    44.88000000
   H     59.94000000    80.52000000    49.55000000
   H     61.48000000    81.97000000    47.46000000
   H     58.52000000    81.65000000    48.12000000
   H     59.44000000    81.20000000    46.63000000
   H     59.88000000    83.54000000    46.15000000
   H     58.91000000    83.94000000    47.63000000
   H     56.99000000    82.84000000    46.59000000
   H     57.99000000    82.55000000    45.07000000
   H     57.91000000    84.92000000    44.72000000
   H     57.19000000    85.24000000    46.31000000
   H     55.29000000    84.04000000    45.61000000
   H     55.54000000    85.35000000    44.64000000
   H     55.94000000    83.85000000    44.05000000
   N     60.28000000    82.92000000    50.38000000
   C     60.61000000    83.76000000    51.51000000
   C     60.74000000    82.98000000    52.81000000
   O     60.02000000    82.04000000    53.13000000
   C     59.61000000    84.91000000    51.67000000
   C     59.84000000    85.83000000    52.86000000
   O     58.99000000    85.70000000    53.77000000
   O     60.84000000    86.57000000    52.90000000
   H     59.76000000    82.08000000    50.58000000
   H     61.58000000    84.17000000    51.25000000
   H     58.57000000    84.58000000    51.62000000
   H     59.79000000    85.52000000    50.79000000
   N     61.71000000    83.40000000    53.63000000
   C     61.86000000    83.09000000    55.04000000
   C     62.81000000    84.07000000    55.71000000
   O     64.03000000    83.93000000    55.63000000
   H     62.58000000    83.70000000    53.21000000
   H     62.35000000    82.12000000    55.08000000
   H     60.85000000    83.00000000    55.44000000
   N     62.30000000    84.97000000    56.55000000
   C     63.07000000    86.01000000    57.20000000
   C     63.67000000    85.51000000    58.51000000
   O     63.16000000    84.68000000    59.25000000
   C     62.21000000    87.26000000    57.40000000
   C     61.53000000    87.74000000    56.13000000
   O     62.22000000    88.07000000    55.14000000
   O     60.32000000    88.06000000    56.06000000
   H     61.30000000    84.93000000    56.71000000
   H     63.89000000    86.36000000    56.58000000
   H     62.76000000    88.16000000    57.67000000
   H     61.46000000    87.07000000    58.16000000
   N     64.80000000    86.11000000    58.92000000
   C     65.47000000    85.73000000    60.14000000
   C     66.01000000    84.31000000    60.04000000
   O     66.56000000    83.91000000    59.02000000
   H     65.30000000    86.75000000    58.32000000
   H     64.64000000    85.81000000    60.84000000
   H     66.24000000    86.44000000    60.45000000
   N     65.99000000    83.58000000    61.16000000
   C     66.42000000    82.20000000    61.24000000
   C     67.90000000    81.97000000    61.49000000
   O     68.48000000    82.85000000    62.12000000
   C     65.58000000    81.46000000    62.27000000
   C     65.78000000    81.93000000    63.71000000
   O     64.20000000    81.64000000    62.01000000
   H     65.44000000    83.99000000    61.91000000
   H     66.29000000    81.64000000    60.31000000
   H     65.83000000    80.40000000    62.16000000
   H     63.98000000    81.03000000    61.30000000
   H     65.16000000    82.82000000    63.87000000
   H     65.34000000    81.22000000    64.42000000
   H     66.81000000    82.21000000    63.92000000
   N     68.49000000    80.82000000    61.16000000
   C     69.82000000    80.41000000    61.58000000
   C     70.98000000    81.22000000    61.04000000
   O     72.04000000    81.27000000    61.66000000
   C     70.13000000    78.92000000    61.46000000
   C     70.29000000    78.59000000    59.98000000
   C     69.10000000    78.13000000    62.26000000
   C     70.54000000    77.09000000    59.84000000
   H     67.91000000    80.08000000    60.79000000
   H     69.86000000    80.53000000    62.66000000
   H     71.09000000    78.77000000    61.95000000
   H     71.16000000    79.09000000    59.55000000
   H     69.34000000    78.79000000    59.47000000
   H     69.27000000    77.05000000    62.22000000
   H     69.07000000    78.44000000    63.31000000
   H     68.12000000    78.20000000    61.79000000
   H     69.65000000    76.53000000    60.13000000
   H     70.81000000    76.76000000    58.84000000
   H     71.38000000    76.83000000    60.47000000
   N     70.76000000    81.97000000    59.96000000
   C     71.64000000    83.00000000    59.46000000
   C     72.87000000    82.35000000    58.83000000
   O     72.84000000    81.55000000    57.90000000
   C     70.85000000    83.74000000    58.38000000
   C     69.66000000    84.49000000    58.96000000
   O     71.68000000    84.65000000    57.68000000
   H     69.79000000    82.03000000    59.66000000
   H     71.86000000    83.68000000    60.29000000
   H     70.55000000    82.95000000    57.70000000
   H     71.28000000    84.82000000    56.82000000
   H     68.96000000    84.90000000    58.23000000
   H     69.03000000    83.80000000    59.52000000
   H     70.07000000    85.27000000    59.60000000
   N     74.04000000    82.74000000    59.34000000
   C     75.35000000    82.27000000    58.93000000
   C     75.57000000    80.79000000    59.20000000
   O     76.36000000    80.18000000    58.48000000
   C     76.48000000    83.15000000    59.45000000
   C     77.72000000    83.07000000    58.57000000
   O     76.81000000    82.79000000    60.78000000
   H     73.94000000    83.42000000    60.08000000
   H     75.37000000    82.40000000    57.84000000
   H     76.14000000    84.18000000    59.42000000
   H     77.74000000    82.97000000    60.97000000
   H     78.15000000    82.08000000    58.46000000
   H     77.49000000    83.52000000    57.61000000
   H     78.60000000    83.63000000    58.90000000
   N     75.01000000    80.30000000    60.31000000
   C     75.12000000    78.93000000    60.79000000
   C     74.64000000    77.94000000    59.73000000
   O     73.59000000    78.19000000    59.14000000
   C     74.38000000    78.83000000    62.12000000
   C     74.87000000    77.61000000    62.89000000
   C     73.84000000    77.24000000    63.96000000
   C     74.35000000    76.23000000    64.98000000
   N     74.78000000    74.95000000    64.41000000
   H     74.46000000    80.92000000    60.88000000
   H     76.17000000    78.66000000    60.90000000
   H     73.29000000    78.84000000    62.14000000
   H     74.52000000    79.67000000    62.81000000
   H     75.84000000    77.82000000    63.33000000
   H     74.96000000    76.72000000    62.26000000
   H     72.99000000    76.88000000    63.37000000
   H     73.45000000    78.08000000    64.51000000
   H     73.53000000    76.11000000    65.69000000
   H     75.08000000    76.68000000    65.66000000
   H     74.10000000    74.54000000    63.78000000
   H     75.64000000    75.07000000    63.89000000
   H     75.03000000    74.22000000    65.07000000
   N     75.32000000    76.80000000    59.56000000
   C     74.84000000    75.61000000    58.90000000
   C     75.91000000    75.08000000    57.95000000
   O     77.09000000    75.11000000    58.27000000
   C     74.49000000    74.51000000    59.90000000
   C     73.16000000    74.88000000    60.55000000
   C     72.71000000    73.90000000    61.63000000
   O     72.25000000    72.82000000    61.20000000
   O     72.72000000    74.26000000    62.82000000
   H     76.27000000    76.71000000    59.89000000
   H     73.97000000    75.91000000    58.30000000
   H     75.29000000    74.52000000    60.64000000
   H     74.35000000    73.57000000    59.36000000
   H     72.44000000    74.98000000    59.74000000
   H     73.28000000    75.84000000    61.04000000
   N     75.59000000    74.64000000    56.73000000
   C     74.36000000    74.75000000    55.97000000
   H     73.61400000    75.28000000    56.56200000
   H     74.55000000    75.30100000    55.04900000
   H     73.99100000    73.75300000    55.72900000
   H     76.32000000    74.25000000    56.15000000
  Ca     60.44000000    89.08000000    53.43000000
   O     59.35000000    90.79000000    55.38000000
   H     60.02000000    90.70000000    56.06000000
   H     58.79000000    91.50000000    55.69000000
   O     62.39000000    90.93000000    54.06000000
   H     62.80000000    91.26000000    53.27000000
   H     62.53000000    91.62000000    54.71000000
   O     57.97000000    88.27000000    54.03000000
   H     57.71000000    87.35000000    54.12000000
   H     57.16000000    88.72000000    53.80000000
   O     62.40000000    88.87000000    51.41000000
   H     63.34000000    88.71000000    51.38000000
   H     62.10000000    88.71000000    50.51000000
   O     59.67000000    91.63000000    52.14000000
   H     59.08000000    92.24000000    52.58000000
   H     59.81000000    92.02000000    51.27000000
   O     58.95000000    88.57000000    51.17000000
   H     59.28000000    88.14000000    50.39000000
   H     58.00000000    88.62000000    51.03000000

Ca 1.00



