%chk=loop3.apoCaM-CA-Ng.Init293.run19.water4.chk
%nprocshared=20
%mem=10GB
%nosave
#b3lyp/svp scf=(tight,noincore,xqc) Test 
#IOP(5/87=12) Density=Current Pop=(MK,readradii) iop(6/33=2) iop(6/42=6)

loop3.apoCaM-CA-Ng.Init293.run19.water4 

   0  1 
   C     59.21000000    23.95000000     4.75000000
   C     59.02000000    24.28000000     3.28000000
   O     58.75000000    23.37000000     2.50000000
   H     59.89400000    24.67000000     5.19800000
   H     58.24800000    23.99700000     5.26100000
   H     59.62500000    22.94700000     4.84700000
   N     59.28000000    25.56000000     2.99000000
   C     59.02000000    26.12000000     1.68000000
   C     58.17000000    27.37000000     1.79000000
   O     57.79000000    27.83000000     2.87000000
   C     60.42000000    26.27000000     1.08000000
   C     61.45000000    27.10000000     1.84000000
   O     61.02000000    27.99000000     2.61000000
   O     62.68000000    27.01000000     1.68000000
   H     59.62000000    26.19000000     3.71000000
   H     58.45000000    25.39000000     1.10000000
   H     60.27000000    26.73000000     0.10000000
   H     60.78000000    25.25000000     0.95000000
   N     57.79000000    27.90000000     0.62000000
   C     56.71000000    28.82000000     0.32000000
   C     56.79000000    30.26000000     0.80000000
   O     56.66000000    31.12000000    -0.07000000
   C     55.35000000    28.21000000     0.65000000
   C     54.27000000    28.79000000    -0.25000000
   C     52.87000000    28.42000000     0.23000000
   C     51.85000000    28.71000000    -0.87000000
   N     51.80000000    27.59000000    -1.83000000
   H     58.14000000    27.37000000    -0.16000000
   H     56.89000000    29.02000000    -0.73000000
   H     55.17000000    28.50000000     1.69000000
   H     55.40000000    27.12000000     0.59000000
   H     54.45000000    28.55000000    -1.30000000
   H     54.20000000    29.88000000    -0.26000000
   H     52.52000000    29.01000000     1.07000000
   H     52.92000000    27.40000000     0.62000000
   H     52.09000000    29.70000000    -1.26000000
   H     50.90000000    28.79000000    -0.34000000
   H     52.65000000    27.56000000    -2.37000000
   H     51.74000000    26.69000000    -1.38000000
   H     51.02000000    27.68000000    -2.46000000
   N     57.11000000    30.47000000     2.08000000
   C     57.25000000    31.79000000     2.66000000
   C     58.57000000    32.01000000     3.39000000
   O     58.93000000    31.25000000     4.28000000
   C     56.06000000    32.06000000     3.57000000
   C     56.11000000    33.45000000     4.19000000
   O     56.23000000    34.52000000     3.55000000
   O     56.02000000    33.58000000     5.43000000
   H     57.15000000    29.67000000     2.70000000
   H     57.16000000    32.44000000     1.79000000
   H     56.16000000    31.38000000     4.42000000
   H     55.16000000    31.90000000     2.99000000
   N     59.26000000    33.11000000     3.07000000
   C     60.38000000    33.56000000     3.89000000
   C     59.92000000    34.30000000     5.14000000
   O     58.83000000    34.86000000     5.22000000
   H     58.87000000    33.75000000     2.40000000
   H     60.92000000    34.17000000     3.17000000
   H     61.00000000    32.72000000     4.20000000
   N     60.89000000    34.47000000     6.04000000
   C     60.85000000    35.26000000     7.25000000
   C     62.01000000    36.23000000     7.37000000
   O     61.94000000    37.16000000     8.17000000
   C     60.91000000    34.21000000     8.36000000
   C     59.63000000    33.39000000     8.42000000
   N     58.47000000    33.98000000     8.75000000
   O     59.69000000    32.18000000     8.26000000
   H     61.76000000    33.98000000     5.91000000
   H     59.94000000    35.86000000     7.23000000
   H     61.09000000    34.71000000     9.31000000
   H     61.70000000    33.54000000     8.04000000
   H     58.54000000    34.90000000     9.15000000
   H     57.58000000    33.51000000     8.68000000
   N     63.00000000    36.18000000     6.48000000
   C     64.12000000    37.11000000     6.55000000
   C     64.87000000    37.24000000     7.87000000
   O     65.15000000    36.22000000     8.49000000
   H     62.95000000    35.53000000     5.71000000
   H     63.85000000    38.13000000     6.27000000
   H     64.85000000    36.95000000     5.75000000
   N     65.04000000    38.47000000     8.35000000
   C     65.35000000    38.94000000     9.68000000
   C     64.59000000    38.23000000    10.79000000
   O     64.98000000    38.41000000    11.94000000
   C     66.86000000    38.88000000     9.91000000
   C     67.66000000    39.39000000     8.74000000
   C     68.02000000    38.55000000     7.68000000
   C     68.21000000    40.67000000     8.85000000
   C     68.78000000    39.10000000     6.64000000
   C     68.88000000    41.25000000     7.77000000
   C     69.08000000    40.47000000     6.61000000
   O     69.63000000    41.01000000     5.48000000
   H     65.06000000    39.13000000     7.58000000
   H     65.20000000    40.02000000     9.69000000
   H     67.20000000    37.86000000    10.07000000
   H     67.15000000    39.38000000    10.84000000
   H     67.67000000    37.52000000     7.67000000
   H     67.92000000    41.37000000     9.62000000
   H     68.96000000    38.48000000     5.77000000
   H     69.20000000    42.28000000     7.74000000
   H     69.96000000    41.88000000     5.70000000
   N     63.49000000    37.52000000    10.50000000
   C     62.47000000    36.98000000    11.37000000
   C     61.63000000    37.97000000    12.17000000
   O     60.40000000    37.88000000    12.23000000
   C     63.01000000    35.87000000    12.27000000
   C     63.51000000    34.70000000    11.42000000
   C     62.08000000    35.34000000    13.36000000
   C     64.20000000    33.56000000    12.17000000
   H     63.32000000    37.59000000     9.51000000
   H     61.78000000    36.45000000    10.71000000
   H     63.90000000    36.29000000    12.74000000
   H     64.26000000    35.07000000    10.72000000
   H     62.67000000    34.30000000    10.86000000
   H     62.70000000    34.82000000    14.10000000
   H     61.58000000    36.11000000    13.94000000
   H     61.37000000    34.68000000    12.87000000
   H     64.93000000    34.07000000    12.80000000
   H     63.49000000    33.08000000    12.84000000
   H     64.68000000    32.88000000    11.46000000
   N     62.35000000    38.88000000    12.82000000
   C     61.82000000    40.00000000    13.56000000
   C     60.87000000    39.73000000    14.72000000
   O     59.95000000    40.52000000    14.95000000
   C     63.01000000    40.82000000    14.06000000
   O     63.51000000    41.64000000    13.02000000
   H     63.35000000    38.84000000    12.72000000
   H     61.33000000    40.69000000    12.87000000
   H     63.73000000    40.13000000    14.50000000
   H     62.59000000    41.47000000    14.82000000
   H     63.91000000    42.39000000    13.47000000
   N     60.90000000    38.61000000    15.46000000
   C     59.89000000    38.21000000    16.42000000
   C     58.47000000    38.26000000    15.89000000
   O     57.56000000    38.49000000    16.68000000
   C     60.18000000    38.87000000    17.76000000
   H     61.70000000    38.00000000    15.42000000
   H     60.12000000    37.15000000    16.60000000
   H     59.51000000    38.51000000    18.54000000
   H     61.20000000    38.53000000    17.96000000
   H     60.13000000    39.94000000    17.55000000
   N     58.31000000    38.03000000    14.58000000
   C     57.11000000    38.08000000    13.78000000
   C     56.75000000    36.72000000    13.18000000
   O     57.68000000    35.94000000    13.05000000
   C     57.23000000    39.17000000    12.72000000
   H     59.12000000    37.71000000    14.07000000
   H     56.21000000    38.30000000    14.35000000
   H     56.26000000    39.45000000    12.30000000
   H     57.65000000    40.06000000    13.19000000
   H     57.88000000    38.83000000    11.92000000
   N     55.47000000    36.51000000    12.84000000
   C     54.93000000    35.34000000    12.17000000
   C     55.15000000    34.03000000    12.91000000
   O     55.08000000    32.96000000    12.31000000
   C     55.44000000    35.22000000    10.74000000
   C     54.96000000    36.39000000     9.88000000
   C     55.44000000    36.37000000     8.43000000
   O     54.67000000    36.15000000     7.47000000
   O     56.67000000    36.36000000     8.22000000
   H     54.78000000    37.24000000    12.88000000
   H     53.85000000    35.49000000    12.18000000
   H     55.12000000    34.33000000    10.20000000
   H     56.52000000    35.38000000    10.69000000
   H     55.30000000    37.35000000    10.25000000
   H     53.88000000    36.33000000     9.96000000
   N     55.54000000    34.11000000    14.18000000
   C     55.96000000    32.98000000    14.99000000
   H     56.86400000    33.24400000    15.54000000
   H     55.16900000    32.72300000    15.69500000
   H     56.16400000    32.12600000    14.34500000
   H     55.67000000    35.00000000    14.63000000
  Ca     56.51000000    36.24000000     5.45000000
   O     53.99000000    36.43000000     4.45000000
   H     53.21000000    36.02000000     4.83000000
   H     53.70000000    36.74000000     3.59000000
   O     56.93000000    37.47000000     3.17000000
   H     57.73000000    37.34000000     2.65000000
   H     56.55000000    38.27000000     2.81000000
   O     55.93000000    39.02000000     5.32000000
   H     55.16000000    39.46000000     4.97000000
   H     56.55000000    39.72000000     5.51000000
   O     58.49000000    38.09000000     6.08000000
   H     59.15000000    38.39000000     5.46000000
   H     58.02000000    38.89000000     6.34000000

Ca 1.00



