%chk=loop4.holoCaM-CaMKII.run19.water2.chk
%nprocshared=20
%mem=10GB
%nosave
#b3lyp/svp scf=(tight,noincore,xqc) Test 
#IOP(5/87=12) Density=Current Pop=(MK,readradii) iop(6/33=2) iop(6/42=6)

loop4.holoCaM-CaMKII.run19.water2 

   -3  1 
   C     92.34000000    71.25000000    35.20000000
   C     92.09000000    71.77000000    36.61000000
   O     91.88000000    72.97000000    36.76000000
   H     93.38300000    70.94800000    35.10400000
   H     91.69500000    70.39200000    35.00900000
   H     92.12200000    72.03700000    34.47800000
   N     92.09000000    70.92000000    37.64000000
   C     91.93000000    71.39000000    39.00000000
   C     93.04000000    72.34000000    39.43000000
   O     94.23000000    72.01000000    39.45000000
   C     92.02000000    70.17000000    39.91000000
   C     91.76000000    70.46000000    41.38000000
   O     91.29000000    71.57000000    41.72000000
   O     92.04000000    69.49000000    42.11000000
   H     92.30000000    69.95000000    37.42000000
   H     90.94000000    71.83000000    38.93000000
   H     92.99000000    69.70000000    39.74000000
   H     91.28000000    69.45000000    39.57000000
   N     92.70000000    73.53000000    39.92000000
   C     93.54000000    74.68000000    40.21000000
   C     94.07000000    74.82000000    41.63000000
   O     95.13000000    75.40000000    41.86000000
   C     92.91000000    75.98000000    39.72000000
   C     92.92000000    76.03000000    38.19000000
   C     93.50000000    77.29000000    40.21000000
   C     94.30000000    76.07000000    37.53000000
   H     91.70000000    73.71000000    39.98000000
   H     94.46000000    74.49000000    39.66000000
   H     91.90000000    76.02000000    40.12000000
   H     92.46000000    76.92000000    37.75000000
   H     92.37000000    75.14000000    37.90000000
   H     93.27000000    77.47000000    41.26000000
   H     94.57000000    77.32000000    40.02000000
   H     92.99000000    78.06000000    39.62000000
   H     94.19000000    76.08000000    36.45000000
   H     94.91000000    76.87000000    37.94000000
   H     94.90000000    75.17000000    37.68000000
   N     93.37000000    74.19000000    42.57000000
   C     93.63000000    74.19000000    44.00000000
   C     93.86000000    72.85000000    44.68000000
   O     94.06000000    72.76000000    45.89000000
   C     92.56000000    74.99000000    44.74000000
   C     91.10000000    74.66000000    44.46000000
   O     90.83000000    73.56000000    43.94000000
   O     90.24000000    75.50000000    44.79000000
   H     92.41000000    73.93000000    42.39000000
   H     94.59000000    74.69000000    44.11000000
   H     92.74000000    76.02000000    44.44000000
   H     92.68000000    74.83000000    45.82000000
   N     93.74000000    71.79000000    43.89000000
   C     94.05000000    70.46000000    44.38000000
   C     93.07000000    69.68000000    45.24000000
   O     93.46000000    68.75000000    45.93000000
   H     93.43000000    71.94000000    42.94000000
   H     95.11000000    70.41000000    44.63000000
   H     94.00000000    69.82000000    43.49000000
   N     91.81000000    70.13000000    45.32000000
   C     90.73000000    69.53000000    46.08000000
   C     90.06000000    68.33000000    45.42000000
   O     89.35000000    67.61000000    46.12000000
   C     89.64000000    70.52000000    46.48000000
   C     88.80000000    71.18000000    45.40000000
   O     88.07000000    72.15000000    45.71000000
   O     88.97000000    70.87000000    44.20000000
   H     91.65000000    71.02000000    44.88000000
   H     91.15000000    69.21000000    47.03000000
   H     89.99000000    71.34000000    47.11000000
   H     88.88000000    70.04000000    47.10000000
   N     90.33000000    68.07000000    44.14000000
   C     89.85000000    66.90000000    43.44000000
   C     88.67000000    67.11000000    42.50000000
   O     88.29000000    66.15000000    41.82000000
   H     91.05000000    68.67000000    43.77000000
   H     89.54000000    66.10000000    44.11000000
   H     90.60000000    66.35000000    42.86000000
   N     88.02000000    68.26000000    42.33000000
   C     86.95000000    68.56000000    41.41000000
   C     87.42000000    69.72000000    40.54000000
   O     88.27000000    70.54000000    40.87000000
   C     85.60000000    68.69000000    42.11000000
   C     85.11000000    67.37000000    42.68000000
   C     83.75000000    67.40000000    43.37000000
   N     83.66000000    67.92000000    44.59000000
   O     82.70000000    67.03000000    42.83000000
   H     88.31000000    69.05000000    42.90000000
   H     86.90000000    67.70000000    40.75000000
   H     84.92000000    69.18000000    41.40000000
   H     85.81000000    69.42000000    42.89000000
   H     85.87000000    67.08000000    43.40000000
   H     85.02000000    66.57000000    41.95000000
   H     84.53000000    68.17000000    45.03000000
   H     82.76000000    67.95000000    45.05000000
   N     86.72000000    69.86000000    39.41000000
   C     86.74000000    71.05000000    38.59000000
   C     85.42000000    71.80000000    38.75000000
   O     84.33000000    71.24000000    38.63000000
   C     87.10000000    70.57000000    37.19000000
   C     87.00000000    71.72000000    36.20000000
   C     88.53000000    70.05000000    37.04000000
   H     86.03000000    69.15000000    39.20000000
   H     87.52000000    71.72000000    38.96000000
   H     86.37000000    69.81000000    36.92000000
   H     87.67000000    72.55000000    36.45000000
   H     87.09000000    71.29000000    35.20000000
   H     85.99000000    72.12000000    36.29000000
   H     88.69000000    69.39000000    36.19000000
   H     89.27000000    70.83000000    37.26000000
   H     88.61000000    69.25000000    37.77000000
   N     85.51000000    73.10000000    39.01000000
   C     84.41000000    74.04000000    39.12000000
   C     84.33000000    74.98000000    37.93000000
   O     85.29000000    75.04000000    37.16000000
   C     84.69000000    74.94000000    40.32000000
   C     83.54000000    75.75000000    40.90000000
   N     82.52000000    75.09000000    41.45000000
   O     83.52000000    76.97000000    40.72000000
   H     86.43000000    73.52000000    39.09000000
   H     83.42000000    73.61000000    39.23000000
   H     85.46000000    75.66000000    40.05000000
   H     85.12000000    74.32000000    41.11000000
   H     82.56000000    74.14000000    41.79000000
   H     81.63000000    75.54000000    41.65000000
   N     83.37000000    75.87000000    37.70000000
   C     83.34000000    76.71000000    36.51000000
   C     84.32000000    77.88000000    36.54000000
   O     84.68000000    78.34000000    35.45000000
   C     81.94000000    77.23000000    36.21000000
   C     81.82000000    77.94000000    34.88000000
   C     81.97000000    77.17000000    33.72000000
   C     81.52000000    79.30000000    34.83000000
   C     81.84000000    77.79000000    32.47000000
   C     81.35000000    79.91000000    33.58000000
   C     81.49000000    79.16000000    32.40000000
   O     81.50000000    79.77000000    31.18000000
   H     82.57000000    75.88000000    38.31000000
   H     83.74000000    76.20000000    35.63000000
   H     81.61000000    77.93000000    36.98000000
   H     81.30000000    76.35000000    36.28000000
   H     82.21000000    76.12000000    33.70000000
   H     81.32000000    79.89000000    35.72000000
   H     81.87000000    77.23000000    31.55000000
   H     81.03000000    80.94000000    33.57000000
   H     81.16000000    80.67000000    31.14000000
   N     84.83000000    78.35000000    37.68000000
   C     85.92000000    79.30000000    37.72000000
   C     87.22000000    78.72000000    37.19000000
   O     88.07000000    79.41000000    36.61000000
   C     86.04000000    79.94000000    39.10000000
   C     86.33000000    78.89000000    40.17000000
   C     87.05000000    79.48000000    41.37000000
   O     86.76000000    79.09000000    42.52000000
   O     87.82000000    80.45000000    41.25000000
   H     84.54000000    77.96000000    38.56000000
   H     85.74000000    80.12000000    37.01000000
   H     85.13000000    80.49000000    39.33000000
   H     86.80000000    80.72000000    39.00000000
   H     86.93000000    78.06000000    39.80000000
   H     85.43000000    78.39000000    40.53000000
   N     87.39000000    77.40000000    37.22000000
   C     88.52000000    76.62000000    36.74000000
   C     88.35000000    76.15000000    35.30000000
   O     89.31000000    76.01000000    34.54000000
   C     88.72000000    75.41000000    37.65000000
   C     88.82000000    75.69000000    39.14000000
   C     89.17000000    74.43000000    39.93000000
   O     90.19000000    74.42000000    40.64000000
   O     88.31000000    73.53000000    40.05000000
   H     86.70000000    76.83000000    37.69000000
   H     89.49000000    77.10000000    36.68000000
   H     89.63000000    74.88000000    37.34000000
   H     87.88000000    74.73000000    37.51000000
   H     87.83000000    76.01000000    39.47000000
   H     89.56000000    76.46000000    39.34000000
   N     87.17000000    75.85000000    34.77000000
   C     86.85000000    75.33000000    33.45000000
   H     86.02500000    75.90100000    33.02500000
   H     87.72300000    75.41800000    32.80300000
   H     86.56100000    74.28200000    33.53200000
   H     86.38000000    76.13000000    35.33000000
  Ca     89.12000000    72.70000000    42.35000000
   O     86.39000000    72.17000000    42.53000000
   H     86.22000000    71.62000000    43.29000000
   H     85.63000000    72.75000000    42.47000000
   O     88.37000000    74.98000000    43.10000000
   H     87.56000000    75.48000000    43.16000000
   H     88.92000000    75.33000000    43.80000000

Ca 1.00



