%chk=loop3.apoCaM-CA-Ng.Init295.run25.water3.chk
%nprocshared=20
%mem=10GB
%nosave
#b3lyp/svp scf=(tight,noincore,xqc) Test 
#IOP(5/87=12) Density=Current Pop=(MK,readradii) iop(6/33=2) iop(6/42=6)

loop3.apoCaM-CA-Ng.Init295.run25.water3 

   0  1 
   C    100.37000000    38.36000000    42.07000000
   C    101.60000000    38.05000000    42.92000000
   O    101.99000000    38.89000000    43.73000000
   H     99.58300000    38.76800000    42.70500000
   H    100.63200000    39.08900000    41.30400000
   H    100.01500000    37.44500000    41.59600000
   N    102.27000000    36.91000000    42.82000000
   C    103.61000000    36.81000000    43.38000000
   C    104.70000000    36.77000000    42.32000000
   O    104.41000000    36.34000000    41.20000000
   C    103.67000000    35.42000000    44.00000000
   C    104.95000000    35.10000000    44.76000000
   O    105.04000000    35.37000000    45.98000000
   O    105.88000000    34.57000000    44.12000000
   H    102.10000000    36.45000000    41.93000000
   H    103.84000000    37.52000000    44.17000000
   H    103.46000000    34.57000000    43.34000000
   H    102.98000000    35.28000000    44.84000000
   N    105.90000000    37.30000000    42.56000000
   C    106.89000000    37.56000000    41.54000000
   C    107.65000000    36.29000000    41.18000000
   O    108.17000000    36.15000000    40.07000000
   C    108.03000000    38.48000000    41.96000000
   C    107.34000000    39.62000000    42.69000000
   C    108.17000000    40.88000000    42.93000000
   C    107.35000000    41.90000000    43.72000000
   N    108.16000000    43.07000000    44.07000000
   H    106.04000000    37.67000000    43.49000000
   H    106.48000000    37.94000000    40.60000000
   H    108.51000000    38.85000000    41.05000000
   H    108.78000000    38.14000000    42.68000000
   H    106.98000000    39.27000000    43.66000000
   H    106.49000000    40.06000000    42.16000000
   H    108.52000000    41.36000000    42.02000000
   H    109.02000000    40.60000000    43.55000000
   H    106.82000000    41.48000000    44.58000000
   H    106.55000000    42.19000000    43.03000000
   H    107.85000000    43.66000000    44.84000000
   H    109.15000000    42.89000000    44.12000000
   H    108.15000000    43.68000000    43.27000000
   N    107.55000000    35.17000000    41.90000000
   C    108.06000000    33.88000000    41.49000000
   C    107.01000000    32.80000000    41.33000000
   O    107.34000000    31.74000000    40.81000000
   C    109.13000000    33.36000000    42.45000000
   C    108.77000000    33.43000000    43.92000000
   O    108.17000000    32.51000000    44.52000000
   O    109.13000000    34.43000000    44.59000000
   H    107.12000000    35.18000000    42.82000000
   H    108.54000000    33.94000000    40.52000000
   H    109.99000000    34.02000000    42.39000000
   H    109.54000000    32.38000000    42.20000000
   N    105.72000000    33.03000000    41.61000000
   C    104.52000000    32.22000000    41.50000000
   C    104.33000000    31.06000000    42.47000000
   O    103.70000000    30.04000000    42.20000000
   H    105.72000000    33.78000000    42.29000000
   H    104.52000000    31.86000000    40.47000000
   H    103.70000000    32.93000000    41.49000000
   N    105.12000000    31.09000000    43.55000000
   C    104.85000000    30.41000000    44.80000000
   C    104.44000000    31.44000000    45.84000000
   O    105.33000000    32.20000000    46.20000000
   C    106.02000000    29.46000000    45.05000000
   C    106.01000000    28.77000000    46.40000000
   N    105.26000000    27.68000000    46.55000000
   O    106.53000000    29.35000000    47.36000000
   H    105.83000000    31.80000000    43.55000000
   H    103.98000000    29.77000000    44.70000000
   H    106.94000000    30.04000000    45.12000000
   H    106.23000000    28.76000000    44.24000000
   H    104.83000000    27.27000000    45.73000000
   H    105.13000000    27.27000000    47.46000000
   N    103.19000000    31.43000000    46.32000000
   C    102.61000000    32.63000000    46.90000000
   C    103.30000000    33.07000000    48.19000000
   O    102.92000000    34.17000000    48.59000000
   H    102.57000000    30.64000000    46.28000000
   H    101.54000000    32.53000000    47.05000000
   H    102.86000000    33.33000000    46.10000000
   N    104.22000000    32.31000000    48.78000000
   C    104.81000000    32.71000000    50.04000000
   C    105.64000000    33.99000000    49.99000000
   O    106.36000000    34.11000000    49.00000000
   C    105.57000000    31.56000000    50.69000000
   C    104.73000000    30.36000000    51.02000000
   C    104.21000000    30.32000000    52.33000000
   C    104.30000000    29.45000000    50.05000000
   C    103.44000000    29.23000000    52.73000000
   C    103.41000000    28.42000000    50.37000000
   C    103.17000000    28.25000000    51.75000000
   O    102.56000000    27.09000000    52.12000000
   H    104.57000000    31.48000000    48.32000000
   H    103.98000000    32.90000000    50.72000000
   H    106.00000000    31.85000000    51.65000000
   H    106.39000000    31.21000000    50.05000000
   H    104.68000000    31.00000000    53.02000000
   H    104.77000000    29.53000000    49.08000000
   H    103.18000000    29.06000000    53.77000000
   H    103.17000000    27.69000000    49.62000000
   H    102.16000000    26.70000000    51.34000000
   N    105.58000000    34.80000000    51.05000000
   C    106.20000000    36.10000000    51.23000000
   C    107.70000000    36.20000000    50.97000000
   O    108.36000000    35.21000000    50.67000000
   C    105.33000000    37.19000000    50.62000000
   C    103.93000000    37.24000000    51.22000000
   C    105.19000000    37.12000000    49.10000000
   C    102.80000000    38.08000000    50.64000000
   H    105.07000000    34.38000000    51.81000000
   H    106.13000000    36.13000000    52.31000000
   H    105.76000000    38.19000000    50.73000000
   H    103.99000000    37.49000000    52.28000000
   H    103.49000000    36.25000000    51.33000000
   H    104.55000000    36.31000000    48.75000000
   H    104.66000000    37.96000000    48.64000000
   H    106.21000000    37.02000000    48.71000000
   H    101.92000000    37.97000000    51.27000000
   H    103.04000000    39.14000000    50.56000000
   H    102.54000000    37.63000000    49.68000000
   N    108.25000000    37.41000000    51.02000000
   C    109.65000000    37.78000000    50.86000000
   C    110.58000000    37.31000000    51.97000000
   O    111.78000000    37.19000000    51.72000000
   C    109.67000000    39.28000000    50.58000000
   O    109.25000000    40.01000000    51.70000000
   H    107.69000000    38.18000000    51.35000000
   H    109.88000000    37.24000000    49.94000000
   H    109.04000000    39.54000000    49.73000000
   H    110.66000000    39.67000000    50.34000000
   H    109.81000000    40.79000000    51.71000000
   N    110.00000000    37.09000000    53.15000000
   C    110.61000000    36.43000000    54.28000000
   C    111.99000000    36.88000000    54.74000000
   O    112.90000000    36.09000000    54.98000000
   C    110.48000000    34.92000000    54.04000000
   H    108.99000000    37.16000000    53.16000000
   H    109.93000000    36.69000000    55.08000000
   H    111.15000000    34.55000000    53.27000000
   H    110.65000000    34.40000000    54.98000000
   H    109.49000000    34.60000000    53.71000000
   N    112.33000000    38.16000000    54.80000000
   C    111.43000000    39.30000000    54.75000000
   C    111.49000000    40.17000000    56.00000000
   O    112.49000000    40.09000000    56.72000000
   C    111.95000000    40.15000000    53.60000000
   H    113.27000000    38.37000000    55.10000000
   H    110.40000000    38.97000000    54.67000000
   H    111.84000000    39.72000000    52.60000000
   H    111.39000000    41.09000000    53.56000000
   H    112.98000000    40.28000000    53.92000000
   N    110.54000000    41.07000000    56.24000000
   C    109.35000000    41.36000000    55.46000000
   C    108.10000000    40.79000000    56.13000000
   O    107.29000000    40.12000000    55.50000000
   C    109.11000000    42.85000000    55.27000000
   C    108.26000000    43.17000000    54.05000000
   C    108.32000000    44.66000000    53.74000000
   O    108.57000000    45.53000000    54.61000000
   O    107.85000000    45.15000000    52.70000000
   H    110.56000000    41.59000000    57.10000000
   H    109.43000000    40.89000000    54.48000000
   H    110.09000000    43.33000000    55.20000000
   H    108.64000000    43.30000000    56.15000000
   H    107.24000000    42.86000000    54.30000000
   H    108.66000000    42.63000000    53.19000000
   N    107.95000000    41.07000000    57.43000000
   C    106.64000000    41.03000000    58.06000000
   H    105.90200000    40.67800000    57.34000000
   H    106.66700000    40.35200000    58.91300000
   H    106.36800000    42.03000000    58.39800000
   H    108.64000000    41.61000000    57.93000000
  Ca    107.25900000    34.11000000    46.41000000
   O    109.35900000    34.28000000    48.19000000
   H    110.05900000    34.93000000    48.09000000
   H    109.05900000    34.39000000    49.09000000
   O    107.79900000    36.80000000    46.24000000
   H    106.97900000    37.22000000    45.97000000
   H    108.46900000    37.49000000    46.14000000
   O    108.10900000    31.77000000    47.35000000
   H    108.49900000    31.78000000    48.22000000
   H    107.60900000    30.96000000    47.32000000

Ca 1.00



