%chk=loop1.apoCaM-CA-Ng.Init293.run94.water5.chk
%nprocshared=20
%mem=10GB
%nosave
#b3lyp/svp scf=(tight,noincore,xqc) Test 
#IOP(5/87=12) Density=Current Pop=(MK,readradii) iop(6/33=2) iop(6/42=6)

loop1.apoCaM-CA-Ng.Init293.run94.water5 

   0  1 
   C     77.20000000   109.04000000    22.12000000
   C     76.55000000   110.29000000    21.56000000
   O     75.81000000   110.31000000    20.58000000
   H     78.13600000   109.30700000    22.61100000
   H     76.53000000   108.57400000    22.84300000
   H     77.40300000   108.34100000    21.30900000
   N     76.90000000   111.47000000    22.09000000
   C     76.33000000   112.75000000    21.72000000
   C     77.07000000   113.52000000    20.64000000
   O     76.61000000   114.56000000    20.19000000
   C     76.26000000   113.63000000    22.97000000
   C     77.63000000   114.00000000    23.52000000
   O     77.92000000   115.20000000    23.73000000
   O     78.42000000   113.14000000    23.97000000
   H     77.58000000   111.42000000    22.83000000
   H     75.34000000   112.54000000    21.31000000
   H     75.76000000   113.05000000    23.74000000
   H     75.69000000   114.48000000    22.60000000
   N     78.31000000   113.09000000    20.36000000
   C     79.14000000   113.70000000    19.35000000
   C     78.73000000   113.18000000    17.98000000
   O     78.41000000   112.01000000    17.76000000
   C     80.55000000   113.30000000    19.78000000
   C     80.97000000   113.47000000    21.24000000
   C     80.92000000   114.92000000    21.71000000
   C     81.54000000   115.17000000    23.08000000
   N     80.90000000   114.31000000    24.08000000
   H     78.65000000   112.26000000    20.83000000
   H     79.12000000   114.79000000    19.39000000
   H     81.25000000   113.75000000    19.08000000
   H     80.56000000   112.23000000    19.58000000
   H     82.01000000   113.14000000    21.34000000
   H     80.32000000   112.96000000    21.95000000
   H     79.87000000   115.19000000    21.74000000
   H     81.41000000   115.62000000    21.02000000
   H     81.45000000   116.17000000    23.51000000
   H     82.61000000   114.99000000    22.99000000
   H     81.14000000   113.33000000    24.01000000
   H     81.20000000   114.57000000    25.00000000
   H     79.89000000   114.38000000    24.02000000
   N     78.62000000   113.99000000    16.93000000
   C     78.88000000   115.41000000    16.84000000
   C     77.88000000   116.09000000    15.92000000
   O     78.33000000   116.85000000    15.06000000
   C     80.34000000   115.71000000    16.52000000
   C     80.86000000   115.10000000    15.22000000
   O     82.07000000   115.31000000    14.99000000
   O     80.20000000   114.28000000    14.54000000
   H     78.43000000   113.61000000    16.01000000
   H     78.66000000   115.84000000    17.81000000
   H     80.99000000   115.39000000    17.33000000
   H     80.47000000   116.79000000    16.42000000
   N     76.57000000   115.81000000    16.01000000
   C     75.84000000   115.13000000    17.05000000
   C     74.37000000   115.07000000    16.64000000
   O     73.88000000   115.84000000    15.82000000
   H     75.97000000   116.10000000    15.25000000
   H     75.95000000   115.69000000    17.98000000
   H     76.28000000   114.13000000    17.17000000
   N     73.55000000   114.14000000    17.14000000
   C     73.91000000   113.11000000    18.09000000
   C     72.84000000   112.99000000    19.16000000
   O     71.82000000   113.67000000    19.01000000
   C     74.02000000   111.78000000    17.36000000
   C     74.86000000   111.89000000    16.09000000
   O     76.03000000   111.48000000    16.28000000
   O     74.41000000   112.29000000    15.00000000
   H     72.55000000   114.30000000    17.14000000
   H     74.85000000   113.31000000    18.60000000
   H     73.04000000   111.45000000    17.03000000
   H     74.43000000   110.98000000    17.98000000
   N     72.98000000   112.14000000    20.18000000
   C     71.96000000   111.75000000    21.14000000
   C     71.65000000   110.26000000    21.07000000
   O     70.73000000   109.75000000    21.69000000
   H     73.83000000   111.61000000    20.30000000
   H     71.04000000   112.23000000    20.79000000
   H     72.27000000   112.08000000    22.13000000
   N     72.40000000   109.48000000    20.29000000
   C     72.17000000   108.08000000    20.00000000
   C     73.42000000   107.34000000    19.52000000
   O     74.30000000   107.89000000    18.86000000
   C     71.15000000   107.99000000    18.87000000
   C     71.65000000   108.41000000    17.49000000
   O     70.02000000   108.82000000    19.03000000
   H     73.24000000   109.87000000    19.87000000
   H     71.80000000   107.72000000    20.95000000
   H     70.82000000   106.95000000    18.89000000
   H     69.47000000   108.52000000    18.30000000
   H     72.12000000   109.39000000    17.59000000
   H     72.48000000   107.86000000    17.04000000
   H     70.84000000   108.37000000    16.76000000
   N     73.33000000   106.03000000    19.72000000
   C     74.28000000   105.01000000    19.31000000
   C     73.77000000   104.37000000    18.03000000
   O     73.22000000   103.27000000    18.04000000
   C     74.82000000   104.18000000    20.48000000
   C     75.84000000   103.17000000    19.95000000
   C     73.79000000   103.55000000    21.41000000
   C     76.97000000   103.74000000    19.11000000
   H     72.50000000   105.68000000    20.17000000
   H     75.15000000   105.63000000    19.07000000
   H     75.39000000   104.92000000    21.02000000
   H     75.27000000   102.43000000    19.39000000
   H     76.24000000   102.66000000    20.83000000
   H     73.09000000   102.89000000    20.89000000
   H     74.26000000   103.07000000    22.26000000
   H     73.13000000   104.28000000    21.89000000
   H     76.64000000   103.83000000    18.08000000
   H     77.27000000   104.72000000    19.48000000
   H     77.89000000   103.16000000    19.03000000
   N     73.92000000   105.09000000    16.92000000
   C     73.53000000   104.60000000    15.61000000
   C     74.54000000   103.61000000    15.05000000
   O     74.19000000   102.71000000    14.28000000
   C     73.29000000   105.73000000    14.61000000
   C     74.35000000   106.82000000    14.39000000
   O     72.07000000   106.35000000    14.94000000
   H     74.44000000   105.95000000    16.96000000
   H     72.61000000   104.04000000    15.77000000
   H     73.03000000   105.22000000    13.69000000
   H     71.39000000   105.69000000    14.85000000
   H     75.31000000   106.32000000    14.27000000
   H     74.15000000   107.26000000    13.42000000
   H     74.36000000   107.58000000    15.17000000
   N     75.76000000   103.68000000    15.57000000
   C     76.95000000   103.02000000    15.06000000
   C     77.23000000   103.52000000    13.65000000
   O     76.58000000   104.43000000    13.13000000
   C     76.96000000   101.50000000    14.97000000
   C     76.40000000   100.81000000    16.22000000
   O     78.22000000   100.90000000    14.80000000
   H     75.93000000   104.44000000    16.22000000
   H     77.82000000   103.29000000    15.66000000
   H     76.37000000   101.24000000    14.09000000
   H     78.04000000    99.99000000    14.59000000
   H     77.07000000   101.21000000    16.98000000
   H     75.35000000   101.07000000    16.33000000
   H     76.51000000    99.72000000    16.25000000
   N     78.20000000   102.95000000    12.93000000
   C     78.35000000   103.03000000    11.49000000
   C     79.43000000   103.90000000    10.87000000
   O     79.45000000   103.92000000     9.64000000
   C     78.65000000   101.65000000    10.91000000
   C     77.43000000   100.73000000    10.87000000
   C     77.72000000    99.24000000    10.77000000
   C     76.41000000    98.45000000    10.64000000
   N     76.73000000    97.02000000    10.51000000
   H     78.72000000   102.21000000    13.38000000
   H     77.41000000   103.33000000    11.02000000
   H     79.23000000   101.19000000    11.70000000
   H     79.17000000   101.55000000     9.96000000
   H     76.89000000   101.02000000     9.97000000
   H     76.76000000   101.03000000    11.68000000
   H     78.18000000    98.92000000    11.70000000
   H     78.41000000    98.99000000     9.97000000
   H     75.74000000    98.85000000     9.88000000
   H     75.85000000    98.58000000    11.57000000
   H     77.45000000    96.77000000     9.84000000
   H     77.02000000    96.71000000    11.42000000
   H     75.96000000    96.43000000    10.25000000
   N     80.42000000   104.55000000    11.49000000
   C     80.80000000   104.67000000    12.89000000
   C     81.06000000   103.35000000    13.61000000
   O     81.04000000   103.17000000    14.82000000
   C     79.89000000   105.65000000    13.63000000
   C     80.57000000   106.62000000    14.59000000
   C     79.67000000   107.81000000    14.91000000
   O     80.08000000   108.94000000    14.59000000
   O     78.48000000   107.69000000    15.29000000
   H     80.85000000   105.23000000    10.88000000
   H     81.72000000   105.23000000    12.77000000
   H     79.20000000   105.04000000    14.21000000
   H     79.25000000   106.10000000    12.87000000
   H     81.45000000   107.05000000    14.12000000
   H     80.81000000   106.05000000    15.48000000
   N     81.55000000   102.31000000    12.93000000
   C     81.89000000   100.97000000    13.37000000
   H     82.80600000   101.00300000    13.95900000
   H     81.08000000   100.57100000    13.98100000
   H     82.04000000   100.32900000    12.50100000
   H     81.64000000   102.43000000    11.93000000
  Ca     78.18000000   110.25000000    15.97000000
   O     76.55000000   109.15000000    18.09000000
   H     76.72000000   109.90000000    18.66000000
   H     75.68000000   108.85000000    18.34000000
   O     79.70000000   109.25000000    17.91000000
   H     79.83000000   109.72000000    18.74000000
   H     80.51000000   108.75000000    17.79000000
   O     76.40000000   109.35000000    14.06000000
   H     75.49000000   109.60000000    13.91000000
   H     76.54000000   108.59000000    13.50000000
   O     80.85000000   111.35000000    16.17000000
   H     81.48000000   111.34000000    16.89000000
   H     81.36000000   111.14000000    15.39000000
   O     78.10000000   112.47000000    14.58000000
   H     78.79000000   113.11000000    14.41000000
   H     77.39000000   112.74000000    14.00000000

Ca 1.00



