%chk=loop4.holoCaM.run55.water2.chk
%nprocshared=20
%mem=10GB
%nosave
#b3lyp/svp scf=(tight,noincore,xqc) Test 
#IOP(5/87=12) Density=Current Pop=(MK,readradii) iop(6/33=2) iop(6/42=6)

loop4.holoCaM.run55.water2 

   -3  1 
   C     84.76000000    51.01000000     2.95300000
   C     84.34000000    52.38000000     3.47300000
   O     83.44000000    53.03000000     2.95300000
   H     85.74600000    50.76000000     3.34500000
   H     84.03900000    50.26000000     3.27900000
   H     84.79700000    51.03000000     1.86400000
   N     85.09000000    52.78000000     4.49300000
   C     84.80000000    53.87000000     5.40300000
   C     85.72000000    55.04000000     5.09300000
   O     86.93000000    54.80000000     5.12300000
   C     84.99000000    53.26000000     6.79300000
   C     84.55000000    54.24000000     7.87300000
   O     84.20000000    53.78000000     8.98300000
   O     84.24000000    55.43000000     7.63300000
   H     85.86000000    52.16000000     4.74300000
   H     83.75000000    54.08000000     5.23300000
   H     86.06000000    53.13000000     6.91300000
   H     84.47000000    52.32000000     6.97300000
   N     85.18000000    56.25000000     5.04300000
   C     85.92000000    57.46000000     4.71300000
   C     86.40000000    58.34000000     5.85300000
   O     86.99000000    59.41000000     5.72300000
   C     85.30000000    58.24000000     3.55300000
   C     84.14000000    59.07000000     4.08300000
   C     85.01000000    57.34000000     2.35300000
   C     83.33000000    59.70000000     2.95300000
   H     84.17000000    56.27000000     4.95300000
   H     86.82000000    57.07000000     4.24300000
   H     86.09000000    58.93000000     3.27300000
   H     84.55000000    59.85000000     4.73300000
   H     83.51000000    58.54000000     4.79300000
   H     85.88000000    56.73000000     2.13300000
   H     84.23000000    56.60000000     2.57300000
   H     84.73000000    57.95000000     1.49300000
   H     82.81000000    58.94000000     2.36300000
   H     82.65000000    60.41000000     3.41300000
   H     83.98000000    60.28000000     2.30300000
   N     86.07000000    57.96000000     7.09300000
   C     86.25000000    58.80000000     8.26300000
   C     86.46000000    57.92000000     9.48300000
   O     86.82000000    58.50000000    10.51300000
   C     84.95000000    59.58000000     8.42300000
   C     83.66000000    58.77000000     8.32300000
   O     82.96000000    58.89000000     7.29300000
   O     83.36000000    57.97000000     9.23300000
   H     85.57000000    57.09000000     7.21300000
   H     87.06000000    59.52000000     8.20300000
   H     84.96000000    60.30000000     7.61300000
   H     84.90000000    60.11000000     9.38300000
   N     86.25000000    56.60000000     9.45300000
   C     86.63000000    55.72000000    10.53300000
   C     85.68000000    55.67000000    11.72300000
   O     86.01000000    55.95000000    12.87300000
   H     85.65000000    56.33000000     8.68300000
   H     87.66000000    55.95000000    10.80300000
   H     86.80000000    54.70000000    10.17300000
   N     84.41000000    55.32000000    11.55300000
   C     83.45000000    55.06000000    12.61300000
   C     82.66000000    53.78000000    12.37300000
   O     81.77000000    53.50000000    13.17300000
   C     82.52000000    56.26000000    12.68300000
   C     81.77000000    56.61000000    11.40300000
   O     81.03000000    57.62000000    11.48300000
   O     81.79000000    55.87000000    10.40300000
   H     84.17000000    54.99000000    10.62300000
   H     83.89000000    54.98000000    13.60300000
   H     83.20000000    57.04000000    13.04300000
   H     81.88000000    56.07000000    13.54300000
   N     82.86000000    53.04000000    11.28300000
   C     82.16000000    51.85000000    10.86300000
   C     80.69000000    51.97000000    10.49300000
   O     79.87000000    51.06000000    10.61300000
   H     83.54000000    53.38000000    10.62300000
   H     82.27000000    51.06000000    11.61300000
   H     82.68000000    51.65000000     9.93300000
   N     80.34000000    53.16000000     9.99300000
   C     78.95000000    53.33000000     9.60300000
   C     78.94000000    54.20000000     8.35300000
   O     79.56000000    55.25000000     8.25300000
   C     78.23000000    54.03000000    10.75300000
   C     77.94000000    53.27000000    12.04300000
   C     76.91000000    54.05000000    12.85300000
   N     77.14000000    54.46000000    14.10300000
   O     75.78000000    54.35000000    12.45300000
   H     80.92000000    53.99000000    10.06300000
   H     78.39000000    52.41000000     9.41300000
   H     77.25000000    54.27000000    10.34300000
   H     78.72000000    54.98000000    10.93300000
   H     78.83000000    53.14000000    12.65300000
   H     77.41000000    52.37000000    11.74300000
   H     78.05000000    54.22000000    14.47300000
   H     76.39000000    54.90000000    14.61300000
   N     78.14000000    53.75000000     7.37300000
   C     78.15000000    54.40000000     6.07300000
   C     77.13000000    55.52000000     5.95300000
   O     75.92000000    55.31000000     5.92300000
   C     78.09000000    53.36000000     4.95300000
   C     79.42000000    52.63000000     4.75300000
   C     76.97000000    52.34000000     4.89300000
   H     77.75000000    52.82000000     7.45300000
   H     79.07000000    54.96000000     5.95300000
   H     78.04000000    53.98000000     4.05300000
   H     79.28000000    51.88000000     3.97300000
   H     80.21000000    53.28000000     4.37300000
   H     79.63000000    52.21000000     5.73300000
   H     77.08000000    51.72000000     5.78300000
   H     75.97000000    52.79000000     4.86300000
   H     76.86000000    51.87000000     3.91300000
   N     77.64000000    56.73000000     5.70300000
   C     76.80000000    57.78000000     5.15300000
   C     76.41000000    57.40000000     3.72300000
   O     77.06000000    56.54000000     3.14300000
   C     77.39000000    59.17000000     5.34300000
   C     78.53000000    59.48000000     4.38300000
   N     79.81000000    59.50000000     4.76300000
   O     78.34000000    59.71000000     3.19300000
   H     78.65000000    56.81000000     5.68300000
   H     75.83000000    57.74000000     5.65300000
   H     77.76000000    59.26000000     6.37300000
   H     76.69000000    59.98000000     5.15300000
   H     80.09000000    59.33000000     5.72300000
   H     80.48000000    59.72000000     4.05300000
   N     75.36000000    58.03000000     3.19300000
   C     74.82000000    57.84000000     1.86300000
   C     75.88000000    57.82000000     0.76300000
   O     75.95000000    56.93000000    -0.07700000
   C     73.66000000    58.75000000     1.48300000
   C     73.15000000    58.64000000     0.06300000
   C     72.23000000    57.64000000    -0.28700000
   C     73.73000000    59.46000000    -0.90700000
   C     71.80000000    57.55000000    -1.61700000
   C     73.29000000    59.41000000    -2.23700000
   C     72.29000000    58.46000000    -2.56700000
   O     71.95000000    58.25000000    -3.86700000
   H     74.89000000    58.70000000     3.78300000
   H     74.41000000    56.83000000     1.91300000
   H     74.02000000    59.76000000     1.63300000
   H     72.87000000    58.47000000     2.19300000
   H     71.96000000    56.90000000     0.45300000
   H     74.53000000    60.16000000    -0.72700000
   H     71.15000000    56.73000000    -1.87700000
   H     73.74000000    60.06000000    -2.96700000
   H     72.26000000    59.00000000    -4.37700000
   N     76.84000000    58.75000000     0.71300000
   C     77.83000000    58.80000000    -0.33700000
   C     78.94000000    57.78000000    -0.12700000
   O     79.56000000    57.31000000    -1.07700000
   C     78.52000000    60.16000000    -0.47700000
   C     77.63000000    61.34000000    -0.83700000
   C     78.48000000    62.57000000    -1.14700000
   O     78.51000000    63.04000000    -2.29700000
   O     79.16000000    63.01000000    -0.19700000
   H     76.62000000    59.60000000     1.19300000
   H     77.37000000    58.60000000    -1.30700000
   H     79.25000000    60.11000000    -1.28700000
   H     78.90000000    60.47000000     0.49300000
   H     77.01000000    61.47000000     0.05300000
   H     77.05000000    61.11000000    -1.73700000
   N     79.21000000    57.31000000     1.09300000
   C     79.93000000    56.06000000     1.28300000
   C     79.22000000    54.80000000     0.82300000
   O     79.83000000    53.78000000     0.50300000
   C     80.20000000    55.74000000     2.74300000
   C     81.20000000    56.70000000     3.36300000
   C     81.39000000    56.54000000     4.86300000
   O     80.49000000    56.88000000     5.65300000
   O     82.43000000    56.02000000     5.34300000
   H     78.73000000    57.67000000     1.91300000
   H     80.83000000    56.12000000     0.68300000
   H     80.65000000    54.75000000     2.73300000
   H     79.32000000    55.64000000     3.39300000
   H     80.93000000    57.74000000     3.15300000
   H     82.15000000    56.44000000     2.88300000
   N     77.88000000    54.78000000     0.90300000
   C     77.14000000    53.61000000     0.48300000
   H     76.20600000    53.92000000     0.01500000
   H     77.73300000    53.04200000    -0.23300000
   H     76.92200000    52.98700000     1.35000000
   H     77.34000000    55.60000000     1.11300000
  Ca     81.86000000    56.33000000     7.91000000
   O     79.88000000    58.16000000     9.22000000
   H     80.27000000    57.90000000    10.05000000
   H     78.95000000    57.99000000     9.33000000
   O     81.73000000    53.57000000     6.92000000
   H     82.16000000    53.66000000     6.07000000
   H     82.12000000    52.78000000     7.31000000

Ca 1.00



