%chk=loop4.apoCaM-CA-Ng.Init295.run38.water3.chk
%nprocshared=20
%mem=10GB
%nosave
#b3lyp/svp scf=(tight,noincore,xqc) Test 
#IOP(5/87=12) Density=Current Pop=(MK,readradii) iop(6/33=2) iop(6/42=6)

loop4.apoCaM-CA-Ng.Init295.run38.water3 

   -3  1 
   C     83.58000000    25.59000000    63.03000000
   C     84.49000000    24.48000000    63.54000000
   O     85.71000000    24.55000000    63.40000000
   H     82.66900000    25.61600000    63.62800000
   H     84.09400000    26.54800000    63.11100000
   H     83.32500000    25.40100000    61.98700000
   N     84.02000000    23.37000000    64.11000000
   C     84.82000000    22.28000000    64.64000000
   C     85.81000000    22.70000000    65.72000000
   O     86.98000000    22.32000000    65.59000000
   C     85.42000000    21.43000000    63.52000000
   C     84.45000000    21.01000000    62.42000000
   O     84.66000000    21.21000000    61.21000000
   O     83.32000000    20.60000000    62.75000000
   H     83.03000000    23.31000000    64.30000000
   H     84.25000000    21.62000000    65.29000000
   H     85.75000000    20.47000000    63.92000000
   H     86.30000000    21.93000000    63.11000000
   N     85.41000000    23.47000000    66.73000000
   C     86.28000000    24.12000000    67.69000000
   C     85.94000000    23.59000000    69.08000000
   O     84.76000000    23.62000000    69.42000000
   C     86.29000000    25.64000000    67.69000000
   C     86.82000000    26.18000000    66.36000000
   C     87.26000000    26.10000000    68.77000000
   C     86.80000000    27.70000000    66.23000000
   H     84.41000000    23.55000000    66.84000000
   H     87.32000000    23.86000000    67.52000000
   H     85.36000000    26.10000000    68.03000000
   H     86.05000000    25.99000000    65.62000000
   H     87.80000000    25.73000000    66.21000000
   H     86.84000000    25.98000000    69.77000000
   H     88.18000000    25.52000000    68.73000000
   H     87.45000000    27.18000000    68.79000000
   H     85.80000000    28.09000000    66.47000000
   H     87.46000000    28.15000000    66.97000000
   H     87.09000000    28.05000000    65.24000000
   N     86.87000000    23.03000000    69.86000000
   C     88.21000000    22.65000000    69.45000000
   C     88.15000000    21.40000000    68.57000000
   O     89.11000000    21.06000000    67.88000000
   C     89.16000000    22.36000000    70.61000000
   C     89.44000000    23.59000000    71.46000000
   O     90.51000000    24.19000000    71.21000000
   O     88.60000000    24.16000000    72.19000000
   H     86.51000000    22.67000000    70.73000000
   H     88.65000000    23.45000000    68.87000000
   H     90.08000000    21.89000000    70.27000000
   H     88.73000000    21.57000000    71.23000000
   N     87.06000000    20.64000000    68.62000000
   C     86.92000000    19.39000000    67.90000000
   C     88.04000000    18.37000000    68.11000000
   O     88.39000000    18.06000000    69.24000000
   H     86.26000000    20.86000000    69.20000000
   H     86.70000000    19.63000000    66.86000000
   H     86.03000000    18.97000000    68.36000000
   N     88.64000000    17.89000000    67.02000000
   C     89.84000000    17.07000000    67.05000000
   C     91.00000000    17.78000000    66.37000000
   O     92.09000000    17.28000000    66.66000000
   C     89.53000000    15.75000000    66.37000000
   C     88.60000000    15.89000000    65.17000000
   O     88.79000000    16.86000000    64.40000000
   O     87.54000000    15.24000000    65.05000000
   H     88.36000000    18.30000000    66.15000000
   H     90.24000000    16.80000000    68.03000000
   H     88.99000000    15.13000000    67.09000000
   H     90.44000000    15.23000000    66.07000000
   N     90.90000000    18.97000000    65.79000000
   C     91.98000000    19.74000000    65.19000000
   C     92.26000000    19.42000000    63.73000000
   O     93.15000000    20.06000000    63.18000000
   H     89.98000000    19.31000000    65.52000000
   H     92.89000000    19.43000000    65.71000000
   H     91.82000000    20.78000000    65.45000000
   N     91.56000000    18.49000000    63.07000000
   C     91.86000000    18.10000000    61.71000000
   C     91.88000000    19.22000000    60.67000000
   O     92.71000000    19.23000000    59.76000000
   C     93.01000000    17.10000000    61.76000000
   C     92.78000000    15.85000000    62.61000000
   C     93.99000000    14.92000000    62.51000000
   N     93.84000000    13.60000000    62.70000000
   O     95.13000000    15.32000000    62.33000000
   H     90.80000000    18.08000000    63.59000000
   H     90.98000000    17.56000000    61.36000000
   H     93.86000000    17.60000000    62.22000000
   H     93.29000000    16.92000000    60.72000000
   H     91.84000000    15.36000000    62.37000000
   H     92.67000000    16.07000000    63.67000000
   H     92.95000000    13.19000000    62.94000000
   H     94.65000000    13.01000000    62.81000000
   N     90.91000000    20.13000000    60.78000000
   C     90.87000000    21.29000000    59.91000000
   C     90.31000000    20.87000000    58.55000000
   O     89.68000000    19.83000000    58.40000000
   C     90.16000000    22.51000000    60.47000000
   C     88.91000000    22.24000000    61.31000000
   C     90.96000000    23.47000000    61.34000000
   H     90.26000000    19.94000000    61.52000000
   H     91.88000000    21.63000000    59.70000000
   H     89.85000000    23.19000000    59.67000000
   H     88.31000000    23.14000000    61.47000000
   H     88.42000000    21.47000000    60.71000000
   H     89.14000000    21.84000000    62.30000000
   H     90.37000000    24.38000000    61.44000000
   H     91.21000000    22.98000000    62.29000000
   H     91.87000000    23.76000000    60.80000000
   N     90.56000000    21.71000000    57.54000000
   C     90.14000000    21.47000000    56.17000000
   C     89.64000000    22.72000000    55.47000000
   O     90.34000000    23.72000000    55.36000000
   C     91.38000000    20.95000000    55.45000000
   C     91.17000000    20.59000000    53.99000000
   N     90.40000000    19.53000000    53.71000000
   O     91.58000000    21.26000000    53.05000000
   H     91.15000000    22.51000000    57.69000000
   H     89.29000000    20.82000000    55.98000000
   H     91.71000000    19.99000000    55.84000000
   H     92.26000000    21.58000000    55.57000000
   H     90.02000000    18.95000000    54.44000000
   H     90.18000000    19.32000000    52.74000000
   N     88.45000000    22.67000000    54.86000000
   C     87.85000000    23.72000000    54.06000000
   C     86.34000000    23.74000000    53.97000000
   O     85.78000000    24.33000000    53.05000000
   C     88.57000000    23.70000000    52.71000000
   C     88.61000000    25.07000000    52.06000000
   C     89.15000000    26.21000000    52.66000000
   C     88.13000000    25.12000000    50.75000000
   C     89.16000000    27.44000000    51.99000000
   C     88.09000000    26.37000000    50.10000000
   C     88.72000000    27.50000000    50.65000000
   O     88.84000000    28.69000000    50.00000000
   H     88.04000000    21.75000000    54.82000000
   H     88.17000000    24.69000000    54.46000000
   H     88.00000000    23.03000000    52.08000000
   H     89.63000000    23.48000000    52.80000000
   H     89.66000000    26.19000000    53.61000000
   H     87.70000000    24.21000000    50.36000000
   H     89.50000000    28.33000000    52.49000000
   H     87.56000000    26.34000000    49.16000000
   H     88.35000000    28.78000000    49.18000000
   N     85.67000000    23.17000000    54.98000000
   C     84.24000000    23.03000000    55.13000000
   C     83.31000000    24.23000000    55.05000000
   O     82.44000000    24.25000000    54.18000000
   C     83.87000000    22.13000000    56.30000000
   C     82.42000000    21.67000000    56.32000000
   C     82.18000000    20.51000000    57.28000000
   O     81.40000000    19.58000000    56.98000000
   O     82.73000000    20.56000000    58.40000000
   H     86.22000000    22.72000000    55.69000000
   H     83.92000000    22.46000000    54.25000000
   H     84.26000000    22.54000000    57.23000000
   H     84.46000000    21.21000000    56.28000000
   H     82.12000000    21.39000000    55.31000000
   H     81.87000000    22.56000000    56.63000000
   N     83.34000000    25.24000000    55.92000000
   C     84.12000000    25.42000000    57.13000000
   C     85.41000000    26.18000000    56.84000000
   O     85.60000000    26.72000000    55.76000000
   C     83.31000000    26.20000000    58.15000000
   C     81.97000000    25.59000000    58.55000000
   C     82.22000000    24.14000000    58.94000000
   O     81.31000000    23.30000000    58.77000000
   O     83.28000000    23.84000000    59.53000000
   H     82.69000000    25.98000000    55.73000000
   H     84.47000000    24.46000000    57.52000000
   H     83.01000000    27.15000000    57.70000000
   H     83.89000000    26.40000000    59.05000000
   H     81.27000000    25.63000000    57.72000000
   H     81.51000000    26.09000000    59.40000000
   N     86.37000000    26.19000000    57.78000000
   C     87.63000000    26.90000000    57.85000000
   H     88.38100000    26.36400000    57.27000000
   H     87.50500000    27.90300000    57.44300000
   H     87.95300000    26.96600000    58.88900000
   H     86.11000000    25.69000000    58.62000000
  Ca     82.01000000    21.64000000    60.59000000
   O     79.67000000    20.81000000    59.63000000
   H     79.36000000    20.00000000    59.24000000
   H     78.92000000    21.15000000    60.11000000
   O     80.06000000    21.21000000    62.59000000
   H     79.15000000    21.08000000    62.32000000
   H     80.35000000    20.36000000    62.91000000
   O     81.42000000    18.98000000    60.95000000
   H     80.60000000    18.64000000    60.59000000
   H     81.93000000    18.20000000    61.15000000

Ca 1.00



