%chk=loop3.holoCaM.run38.water3.chk
%nprocshared=20
%mem=10GB
%nosave
#b3lyp/svp scf=(tight,noincore,xqc) Test 
#IOP(5/87=12) Density=Current Pop=(MK,readradii) iop(6/33=2) iop(6/42=6)

loop3.holoCaM.run38.water3 

   0  1 
   C     74.76000000    63.26000000    92.69000000
   C     76.27000000    63.25000000    92.51000000
   O     76.87000000    62.19000000    92.32000000
   H     74.27900000    63.09000000    91.72700000
   H     74.47100000    62.47100000    93.38400000
   H     74.44700000    64.22600000    93.08700000
   N     76.96000000    64.39000000    92.69000000
   C     78.38000000    64.49000000    92.93000000
   C     78.71000000    64.09000000    94.36000000
   O     78.11000000    64.61000000    95.30000000
   C     78.79000000    65.94000000    92.67000000
   C     80.25000000    66.22000000    93.01000000
   O     80.57000000    67.42000000    93.12000000
   O     81.10000000    65.31000000    93.13000000
   H     76.39000000    65.22000000    92.80000000
   H     78.90000000    63.84000000    92.23000000
   H     78.10000000    66.53000000    93.27000000
   H     78.69000000    66.19000000    91.61000000
   N     79.57000000    63.08000000    94.44000000
   C     79.77000000    62.28000000    95.64000000
   C     80.98000000    62.70000000    96.46000000
   O     81.16000000    62.09000000    97.51000000
   C     79.84000000    60.79000000    95.31000000
   C     78.70000000    60.15000000    94.52000000
   C     77.35000000    60.33000000    95.21000000
   C     77.15000000    59.89000000    96.66000000
   N     76.01000000    60.56000000    97.29000000
   H     79.97000000    62.82000000    93.55000000
   H     78.94000000    62.49000000    96.32000000
   H     79.93000000    60.19000000    96.21000000
   H     80.81000000    60.66000000    94.84000000
   H     78.90000000    59.09000000    94.40000000
   H     78.68000000    60.68000000    93.56000000
   H     76.70000000    59.65000000    94.65000000
   H     77.10000000    61.37000000    95.01000000
   H     78.06000000    60.16000000    97.20000000
   H     76.99000000    58.83000000    96.51000000
   H     75.88000000    60.48000000    98.29000000
   H     75.96000000    61.53000000    97.01000000
   H     75.14000000    60.20000000    96.93000000
   N     81.81000000    63.64000000    96.00000000
   C     82.89000000    64.21000000    96.76000000
   C     82.92000000    65.73000000    96.68000000
   O     83.87000000    66.41000000    97.06000000
   C     84.26000000    63.68000000    96.35000000
   C     84.65000000    63.93000000    94.89000000
   O     83.90000000    64.03000000    93.90000000
   O     85.88000000    64.06000000    94.75000000
   H     81.51000000    64.10000000    95.15000000
   H     82.79000000    63.95000000    97.82000000
   H     84.19000000    62.60000000    96.46000000
   H     85.01000000    64.03000000    97.06000000
   N     81.81000000    66.30000000    96.19000000
   C     81.58000000    67.73000000    96.15000000
   C     82.60000000    68.54000000    95.36000000
   O     83.05000000    69.62000000    95.75000000
   H     81.00000000    65.74000000    95.97000000
   H     81.47000000    68.21000000    97.12000000
   H     80.64000000    67.92000000    95.63000000
   N     83.23000000    67.99000000    94.31000000
   C     84.12000000    68.78000000    93.49000000
   C     83.55000000    69.72000000    92.44000000
   O     84.19000000    70.39000000    91.63000000
   C     85.24000000    67.91000000    92.92000000
   C     84.91000000    67.25000000    91.59000000
   N     85.72000000    67.32000000    90.53000000
   O     83.78000000    66.80000000    91.37000000
   H     83.03000000    67.05000000    94.01000000
   H     84.66000000    69.47000000    94.14000000
   H     85.44000000    67.20000000    93.72000000
   H     86.11000000    68.53000000    92.71000000
   H     86.63000000    67.74000000    90.66000000
   H     85.55000000    66.61000000    89.84000000
   N     82.22000000    69.68000000    92.30000000
   C     81.36000000    70.34000000    91.34000000
   C     81.10000000    69.57000000    90.05000000
   O     80.59000000    70.18000000    89.12000000
   H     81.74000000    68.99000000    92.86000000
   H     81.81000000    71.31000000    91.17000000
   H     80.34000000    70.45000000    91.72000000
   N     81.40000000    68.27000000    89.97000000
   C     81.14000000    67.58000000    88.73000000
   C     80.74000000    66.12000000    88.87000000
   O     81.27000000    65.37000000    89.68000000
   C     82.41000000    67.54000000    87.87000000
   C     83.01000000    68.82000000    87.36000000
   C     84.00000000    69.41000000    88.16000000
   C     82.48000000    69.41000000    86.21000000
   C     84.37000000    70.73000000    87.88000000
   C     82.98000000    70.69000000    85.92000000
   C     83.87000000    71.40000000    86.75000000
   O     84.43000000    72.60000000    86.42000000
   H     81.74000000    67.81000000    90.80000000
   H     80.36000000    68.04000000    88.13000000
   H     82.15000000    66.94000000    87.00000000
   H     83.18000000    66.94000000    88.36000000
   H     84.27000000    68.91000000    89.08000000
   H     81.77000000    68.89000000    85.58000000
   H     84.99000000    71.20000000    88.63000000
   H     82.57000000    71.16000000    85.04000000
   H     83.97000000    73.01000000    85.68000000
   N     79.91000000    65.54000000    88.00000000
   C     79.58000000    64.13000000    87.95000000
   C     80.55000000    63.46000000    86.99000000
   O     80.87000000    64.04000000    85.95000000
   C     78.14000000    63.94000000    87.48000000
   C     77.13000000    64.32000000    88.56000000
   C     77.91000000    62.52000000    86.99000000
   C     75.64000000    64.15000000    88.31000000
   H     79.58000000    66.02000000    87.18000000
   H     79.81000000    63.58000000    88.87000000
   H     77.83000000    64.51000000    86.61000000
   H     77.23000000    65.36000000    88.86000000
   H     77.45000000    63.82000000    89.48000000
   H     78.50000000    62.26000000    86.11000000
   H     78.22000000    61.87000000    87.81000000
   H     76.84000000    62.41000000    86.82000000
   H     75.00000000    64.55000000    89.09000000
   H     75.46000000    64.53000000    87.30000000
   H     75.40000000    63.09000000    88.33000000
   N     80.91000000    62.22000000    87.31000000
   C     81.70000000    61.33000000    86.48000000
   C     81.03000000    59.96000000    86.53000000
   O     80.07000000    59.78000000    87.28000000
   C     83.06000000    61.28000000    87.17000000
   O     83.05000000    60.87000000    88.52000000
   H     80.64000000    61.99000000    88.26000000
   H     81.70000000    61.70000000    85.46000000
   H     83.53000000    62.26000000    87.16000000
   H     83.73000000    60.59000000    86.64000000
   H     82.41000000    61.45000000    88.93000000
   N     81.57000000    58.96000000    85.82000000
   C     80.80000000    57.80000000    85.41000000
   C     80.30000000    56.87000000    86.51000000
   O     79.13000000    56.49000000    86.52000000
   C     81.60000000    57.02000000    84.37000000
   H     82.36000000    59.25000000    85.26000000
   H     79.89000000    58.17000000    84.94000000
   H     81.13000000    56.09000000    84.05000000
   H     81.61000000    57.52000000    83.40000000
   H     82.60000000    56.77000000    84.71000000
   N     81.22000000    56.54000000    87.42000000
   C     80.87000000    55.87000000    88.66000000
   C     79.72000000    56.48000000    89.46000000
   O     78.77000000    55.76000000    89.78000000
   C     82.16000000    55.61000000    89.43000000
   H     82.19000000    56.75000000    87.25000000
   H     80.59000000    54.86000000    88.37000000
   H     82.91000000    55.06000000    88.87000000
   H     82.47000000    56.64000000    89.61000000
   H     81.91000000    55.11000000    90.37000000
   N     79.85000000    57.78000000    89.71000000
   C     78.81000000    58.62000000    90.28000000
   C     77.56000000    58.57000000    89.42000000
   O     76.48000000    58.43000000    89.99000000
   C     79.21000000    60.06000000    90.58000000
   C     80.54000000    60.16000000    91.32000000
   C     80.96000000    61.62000000    91.34000000
   O     81.31000000    62.17000000    92.41000000
   O     81.23000000    62.19000000    90.26000000
   H     80.70000000    58.27000000    89.48000000
   H     78.61000000    58.10000000    91.22000000
   H     78.36000000    60.50000000    91.11000000
   H     79.27000000    60.55000000    89.61000000
   H     81.30000000    59.55000000    90.82000000
   H     80.35000000    59.75000000    92.31000000
   N     77.58000000    58.67000000    88.09000000
   C     76.41000000    58.62000000    87.23000000
   H     75.62400000    59.24800000    87.65000000
   H     76.67300000    58.98300000    86.23600000
   H     76.05400000    57.59200000    87.15900000
   H     78.48000000    58.84000000    87.67000000
  Ca     82.90000000    64.00000000    91.42000000
   O     85.70000000    64.27000000    91.88000000
   H     86.60000000    64.54000000    91.72000000
   H     85.66000000    64.12000000    92.83000000
   O     84.46000000    64.47000000    89.18000000
   H     85.19000000    63.87000000    89.02000000
   H     84.35000000    64.94000000    88.35000000
   O     84.37000000    61.66000000    91.03000000
   H     84.13000000    60.79000000    90.73000000
   H     85.33000000    61.66000000    91.04000000

Ca 1.00



