%chk=loop3.apoCaM-CA-Ng.Init31.run42.water6.chk
%nprocshared=20
%mem=10GB
%nosave
#b3lyp/svp scf=(tight,noincore,xqc) Test 
#IOP(5/87=12) Density=Current Pop=(MK,readradii) iop(6/33=2) iop(6/42=6)

loop3.apoCaM-CA-Ng.Init31.run42.water6 

   0  1 
   C    108.79000000    40.27000000     7.08000000
   C    109.81000000    41.34000000     7.48000000
   O    109.55000000    42.49000000     7.14000000
   H    107.89700000    40.75100000     6.68100000
   H    109.22300000    39.62100000     6.31900000
   H    108.52200000    39.67700000     7.95500000
   N    110.95000000    40.98000000     8.07000000
   C    111.94000000    41.88000000     8.63000000
   C    113.37000000    41.54000000     8.24000000
   O    113.72000000    40.46000000     7.77000000
   C    111.90000000    41.92000000    10.16000000
   C    112.21000000    40.63000000    10.90000000
   O    111.26000000    39.82000000    10.95000000
   O    113.40000000    40.35000000    11.20000000
   H    111.02000000    40.00000000     8.30000000
   H    111.74000000    42.88000000     8.26000000
   H    110.91000000    42.27000000    10.47000000
   H    112.45000000    42.75000000    10.59000000
   N    114.28000000    42.51000000     8.39000000
   C    115.66000000    42.54000000     7.95000000
   C    115.73000000    42.35000000     6.44000000
   O    116.48000000    41.50000000     5.96000000
   C    116.24000000    43.87000000     8.41000000
   C    116.61000000    43.91000000     9.89000000
   C    117.54000000    45.06000000    10.27000000
   C    116.85000000    46.39000000    10.01000000
   N    117.42000000    47.49000000    10.81000000
   H    113.90000000    43.31000000     8.88000000
   H    116.27000000    41.80000000     8.46000000
   H    115.51000000    44.64000000     8.16000000
   H    117.17000000    43.99000000     7.85000000
   H    117.11000000    42.99000000    10.22000000
   H    115.67000000    43.88000000    10.43000000
   H    118.51000000    45.05000000     9.78000000
   H    117.74000000    44.95000000    11.34000000
   H    115.80000000    46.20000000    10.27000000
   H    117.06000000    46.65000000     8.98000000
   H    118.42000000    47.50000000    10.62000000
   H    117.02000000    48.40000000    10.65000000
   H    117.38000000    47.34000000    11.81000000
   N    114.87000000    43.09000000     5.72000000
   C    114.50000000    42.90000000     4.34000000
   C    114.38000000    44.15000000     3.48000000
   O    114.61000000    44.10000000     2.27000000
   C    113.20000000    42.10000000     4.40000000
   C    112.03000000    42.74000000     5.14000000
   O    110.89000000    42.29000000     4.87000000
   O    112.15000000    43.75000000     5.87000000
   H    114.38000000    43.78000000     6.27000000
   H    115.21000000    42.20000000     3.90000000
   H    113.40000000    41.14000000     4.87000000
   H    112.83000000    41.87000000     3.40000000
   N    114.02000000    45.28000000     4.10000000
   C    113.72000000    46.52000000     3.42000000
   C    114.86000000    47.50000000     3.19000000
   O    116.02000000    47.15000000     3.00000000
   H    113.95000000    45.27000000     5.10000000
   H    113.01000000    47.01000000     4.09000000
   H    113.23000000    46.33000000     2.46000000
   N    114.64000000    48.79000000     2.95000000
   C    113.39000000    49.53000000     2.91000000
   C    112.59000000    49.63000000     4.21000000
   O    113.11000000    49.49000000     5.31000000
   C    113.61000000    50.96000000     2.45000000
   C    114.57000000    51.16000000     1.29000000
   N    114.13000000    51.40000000     0.05000000
   O    115.77000000    51.12000000     1.57000000
   H    115.48000000    49.34000000     2.84000000
   H    112.75000000    48.98000000     2.23000000
   H    113.95000000    51.55000000     3.30000000
   H    112.67000000    51.37000000     2.07000000
   H    113.17000000    51.24000000    -0.21000000
   H    114.92000000    51.60000000    -0.55000000
   N    111.28000000    49.85000000     4.20000000
   C    110.39000000    50.01000000     3.06000000
   C    109.78000000    48.70000000     2.57000000
   O    110.21000000    47.60000000     2.91000000
   H    110.74000000    50.01000000     5.04000000
   H    110.96000000    50.52000000     2.28000000
   H    109.56000000    50.69000000     3.22000000
   N    108.77000000    48.83000000     1.72000000
   C    108.27000000    47.75000000     0.88000000
   C    108.97000000    47.84000000    -0.47000000
   O    109.29000000    48.89000000    -1.02000000
   C    106.76000000    47.90000000     0.72000000
   C    105.95000000    47.72000000     1.98000000
   C    105.90000000    46.47000000     2.62000000
   C    105.20000000    48.80000000     2.44000000
   C    105.08000000    46.30000000     3.74000000
   C    104.51000000    48.70000000     3.65000000
   C    104.39000000    47.43000000     4.24000000
   O    103.60000000    47.26000000     5.35000000
   H    108.54000000    49.79000000     1.52000000
   H    108.38000000    46.76000000     1.31000000
   H    106.47000000    47.14000000     0.00000000
   H    106.69000000    48.90000000     0.27000000
   H    106.39000000    45.64000000     2.14000000
   H    105.14000000    49.74000000     1.91000000
   H    105.04000000    45.30000000     4.14000000
   H    103.96000000    49.54000000     4.04000000
   H    103.19000000    48.07000000     5.67000000
   N    109.41000000    46.66000000    -0.92000000
   C    110.23000000    46.29000000    -2.05000000
   C    109.43000000    45.83000000    -3.26000000
   O    109.95000000    45.74000000    -4.37000000
   C    111.41000000    45.41000000    -1.66000000
   C    112.07000000    45.81000000    -0.34000000
   C    111.04000000    43.94000000    -1.55000000
   C    112.53000000    47.27000000    -0.27000000
   H    108.98000000    45.88000000    -0.45000000
   H    110.66000000    47.24000000    -2.39000000
   H    112.18000000    45.47000000    -2.43000000
   H    113.00000000    45.26000000    -0.21000000
   H    111.40000000    45.44000000     0.44000000
   H    111.92000000    43.38000000    -1.24000000
   H    110.25000000    43.90000000    -0.80000000
   H    110.75000000    43.54000000    -2.52000000
   H    113.22000000    47.43000000    -1.10000000
   H    111.72000000    47.98000000    -0.36000000
   H    113.15000000    47.39000000     0.62000000
   N    108.16000000    45.50000000    -3.02000000
   C    107.14000000    45.16000000    -4.00000000
   C    107.37000000    43.79000000    -4.61000000
   O    106.95000000    43.62000000    -5.75000000
   C    105.76000000    45.42000000    -3.42000000
   O    105.39000000    44.63000000    -2.31000000
   H    107.95000000    45.44000000    -2.03000000
   H    107.18000000    45.87000000    -4.83000000
   H    105.10000000    45.15000000    -4.25000000
   H    105.71000000    46.48000000    -3.20000000
   H    105.97000000    44.85000000    -1.58000000
   N    107.95000000    42.80000000    -3.92000000
   C    108.18000000    41.45000000    -4.37000000
   C    107.98000000    40.44000000    -3.26000000
   O    108.49000000    40.62000000    -2.15000000
   C    109.60000000    41.26000000    -4.92000000
   H    108.00000000    42.93000000    -2.92000000
   H    107.46000000    41.21000000    -5.15000000
   H    109.73000000    41.84000000    -5.83000000
   H    110.31000000    41.57000000    -4.16000000
   H    109.71000000    40.23000000    -5.26000000
   N    107.13000000    39.43000000    -3.47000000
   C    106.86000000    38.26000000    -2.66000000
   C    106.58000000    38.43000000    -1.18000000
   O    106.72000000    37.52000000    -0.36000000
   C    107.96000000    37.26000000    -3.01000000
   H    106.80000000    39.42000000    -4.43000000
   H    105.92000000    37.88000000    -3.07000000
   H    107.60000000    36.26000000    -2.77000000
   H    108.20000000    37.31000000    -4.07000000
   H    108.79000000    37.56000000    -2.37000000
   N    106.18000000    39.66000000    -0.83000000
   C    105.99000000    40.16000000     0.52000000
   C    104.62000000    40.75000000     0.82000000
   O    104.27000000    40.83000000     1.99000000
   C    107.02000000    41.25000000     0.78000000
   C    106.74000000    42.55000000     0.03000000
   C    107.70000000    43.71000000     0.27000000
   O    108.68000000    43.77000000     1.04000000
   O    107.45000000    44.63000000    -0.55000000
   H    106.24000000    40.38000000    -1.53000000
   H    106.10000000    39.33000000     1.22000000
   H    108.00000000    40.84000000     0.53000000
   H    106.97000000    41.57000000     1.82000000
   H    105.75000000    42.93000000     0.25000000
   H    106.82000000    42.31000000    -1.03000000
   N    103.85000000    41.27000000    -0.15000000
   C    102.43000000    41.42000000     0.08000000
   H    101.88600000    40.69900000    -0.53000000
   H    102.21100000    41.24300000     1.13300000
   H    102.12200000    42.43000000    -0.19100000
   H    104.22000000    41.22000000    -1.09000000
  Ca    109.55400000    44.53000000     5.48000000
   O    107.89400000    43.54000000     3.56000000
   H    106.95400000    43.36000000     3.57000000
   H    108.14400000    43.46000000     2.64000000
   O    110.30400000    44.88000000     2.78000000
   H    110.33400000    45.83000000     2.65000000
   H    109.87400000    44.54000000     2.00000000
   O    108.01400000    46.65000000     5.01000000
   H    107.06400000    46.72000000     4.88000000
   H    108.31400000    47.56000000     5.04000000
   O    107.12400000    44.02000000     6.55000000
   H    106.35400000    43.46000000     6.65000000
   H    106.79400000    44.91000000     6.65000000
   O    111.08400000    46.83000000     5.42000000
   H    111.51400000    47.20000000     6.20000000
   H    110.66400000    47.58000000     5.00000000
   O    109.79400000    46.02000000     7.92000000
   H    109.17400000    46.14000000     8.64000000
   H    110.55400000    46.54000000     8.17000000

Ca 1.00



