%chk=loop2.apoCaM-CA-Ng.Init293.run83.water7.chk
%nprocshared=20
%mem=10GB
%nosave
#b3lyp/svp scf=(tight,noincore,xqc) Test 
#IOP(5/87=12) Density=Current Pop=(MK,readradii) iop(6/33=2) iop(6/42=6)

loop2.apoCaM-CA-Ng.Init293.run83.water7 

   -2  1 
   C     72.52000000    90.06000000    10.19000000
   C     73.40000000    91.30000000    10.12000000
   O     73.00000000    92.42000000    10.41000000
   H     71.58100000    90.25200000     9.67000000
   H     73.03300000    89.22300000     9.71600000
   H     72.31400000    89.81800000    11.23300000
   N     74.60000000    91.27000000     9.52000000
   C     75.52000000    92.37000000     9.36000000
   C     75.03000000    93.46000000     8.41000000
   O     75.08000000    94.63000000     8.78000000
   C     76.80000000    91.69000000     8.88000000
   C     77.89000000    92.69000000     8.52000000
   O     78.27000000    93.53000000     9.36000000
   O     78.48000000    92.55000000     7.43000000
   H     74.93000000    90.37000000     9.20000000
   H     75.66000000    92.79000000    10.35000000
   H     76.40000000    91.17000000     8.01000000
   H     77.24000000    90.99000000     9.59000000
   N     74.63000000    93.09000000     7.20000000
   C     74.21000000    93.94000000     6.11000000
   C     73.15000000    94.93000000     6.60000000
   O     73.03000000    96.01000000     6.03000000
   C     75.45000000    94.58000000     5.50000000
   H     74.55000000    92.09000000     7.03000000
   H     73.85000000    93.32000000     5.29000000
   H     76.10000000    93.85000000     5.01000000
   H     75.23000000    95.37000000     4.77000000
   H     75.99000000    95.06000000     6.32000000
   N     72.40000000    94.47000000     7.60000000
   C     71.31000000    95.14000000     8.28000000
   C     71.70000000    96.52000000     8.79000000
   O     70.90000000    97.44000000     8.91000000
   C     70.05000000    95.15000000     7.42000000
   C     69.59000000    93.75000000     7.06000000
   O     68.57000000    93.28000000     7.62000000
   O     70.15000000    93.12000000     6.14000000
   H     72.60000000    93.54000000     7.96000000
   H     70.95000000    94.61000000     9.17000000
   H     70.30000000    95.65000000     6.49000000
   H     69.23000000    95.66000000     7.93000000
   N     72.95000000    96.59000000     9.25000000
   C     73.61000000    97.76000000     9.79000000
   C     72.87000000    98.36000000    10.98000000
   O     72.14000000    97.63000000    11.64000000
   H     73.54000000    95.79000000     9.06000000
   H     73.85000000    98.58000000     9.11000000
   H     74.62000000    97.49000000    10.11000000
   N     72.95000000    99.69000000    11.08000000
   C     72.25000000   100.42000000    12.12000000
   C     72.60000000   100.08000000    13.56000000
   O     71.76000000   100.03000000    14.45000000
   C     70.75000000   100.38000000    11.84000000
   C     69.88000000   101.45000000    12.48000000
   N     68.83000000   101.04000000    13.18000000
   O     70.16000000   102.64000000    12.37000000
   H     73.44000000   100.25000000    10.39000000
   H     72.63000000   101.44000000    12.07000000
   H     70.38000000    99.40000000    12.14000000
   H     70.57000000   100.34000000    10.76000000
   H     68.63000000   100.10000000    13.49000000
   H     68.25000000   101.81000000    13.50000000
   N     73.83000000    99.62000000    13.80000000
   C     74.27000000    98.95000000    15.01000000
   C     74.23000000    97.43000000    14.95000000
   O     74.93000000    96.93000000    15.83000000
   H     74.48000000    99.58000000    13.03000000
   H     73.66000000    99.33000000    15.83000000
   H     75.32000000    99.26000000    15.08000000
   N     73.40000000    96.81000000    14.11000000
   C     73.23000000    95.38000000    13.99000000
   C     71.84000000    94.82000000    14.26000000
   O     70.82000000    95.48000000    14.04000000
   C     73.68000000    94.91000000    12.61000000
   C     75.11000000    95.26000000    12.21000000
   O     73.70000000    93.51000000    12.74000000
   H     72.69000000    97.35000000    13.64000000
   H     73.77000000    94.85000000    14.77000000
   H     72.95000000    95.18000000    11.85000000
   H     73.41000000    93.16000000    11.90000000
   H     75.70000000    95.04000000    13.09000000
   H     75.42000000    94.79000000    11.27000000
   H     75.40000000    96.30000000    12.06000000
   N     71.84000000    93.64000000    14.88000000
   C     70.68000000    92.83000000    15.21000000
   C     69.68000000    92.61000000    14.08000000
   O     70.06000000    92.27000000    12.96000000
   C     71.03000000    91.53000000    15.93000000
   C     71.61000000    91.77000000    17.33000000
   C     69.84000000    90.59000000    16.12000000
   C     72.49000000    90.73000000    18.02000000
   H     72.75000000    93.27000000    15.10000000
   H     70.17000000    93.46000000    15.93000000
   H     71.78000000    91.04000000    15.32000000
   H     70.85000000    92.10000000    18.03000000
   H     72.24000000    92.66000000    17.27000000
   H     68.96000000    91.07000000    16.52000000
   H     69.56000000    90.22000000    15.13000000
   H     70.20000000    89.70000000    16.63000000
   H     72.95000000    91.11000000    18.94000000
   H     71.93000000    89.85000000    18.33000000
   H     73.21000000    90.32000000    17.31000000
   N     68.39000000    92.83000000    14.31000000
   C     67.29000000    92.79000000    13.37000000
   C     66.45000000    94.03000000    13.65000000
   O     65.29000000    93.97000000    14.07000000
   C     66.56000000    91.47000000    13.63000000
   C     65.77000000    90.98000000    12.43000000
   O     66.18000000    91.31000000    11.29000000
   O     64.68000000    90.43000000    12.68000000
   H     68.06000000    93.24000000    15.17000000
   H     67.72000000    92.83000000    12.37000000
   H     65.87000000    91.59000000    14.47000000
   H     67.26000000    90.72000000    13.99000000
   N     67.05000000    95.21000000    13.45000000
   C     66.50000000    96.46000000    13.93000000
   C     67.58000000    97.43000000    14.38000000
   O     67.68000000    98.48000000    13.75000000
   C     65.63000000    96.96000000    12.79000000
   C     64.86000000    98.25000000    12.96000000
   C     65.04000000    99.35000000    12.12000000
   C     63.82000000    98.31000000    13.90000000
   C     64.23000000   100.49000000    12.16000000
   C     63.05000000    99.48000000    14.00000000
   C     63.27000000   100.59000000    13.18000000
   H     68.00000000    95.29000000    13.12000000
   H     65.88000000    96.23000000    14.80000000
   H     64.87000000    96.23000000    12.50000000
   H     66.30000000    96.96000000    11.93000000
   H     65.83000000    99.39000000    11.39000000
   H     63.63000000    97.43000000    14.50000000
   H     64.48000000   101.30000000    11.48000000
   H     62.24000000    99.43000000    14.71000000
   H     62.66000000   101.46000000    13.36000000
   N     68.27000000    97.22000000    15.51000000
   C     68.42000000    95.98000000    16.25000000
   C     67.29000000    95.33000000    17.03000000
   O     67.07000000    94.12000000    17.07000000
   C     69.63000000    96.07000000    17.19000000
   C     70.20000000    97.47000000    16.96000000
   C     69.43000000    98.04000000    15.78000000
   H     68.84000000    95.32000000    15.50000000
   H     69.30000000    96.08000000    18.23000000
   H     70.39000000    95.30000000    17.10000000
   H     70.13000000    98.15000000    17.81000000
   H     71.26000000    97.49000000    16.70000000
   H     69.17000000    99.07000000    16.02000000
   H     70.07000000    98.09000000    14.89000000
   N     66.52000000    96.16000000    17.73000000
   C     65.40000000    95.86000000    18.60000000
   C     65.65000000    94.83000000    19.69000000
   O     65.04000000    93.79000000    19.91000000
   C     64.16000000    95.54000000    17.77000000
   C     63.71000000    96.79000000    17.02000000
   C     63.10000000    97.87000000    17.89000000
   O     62.09000000    97.53000000    18.55000000
   O     63.64000000    98.97000000    18.13000000
   H     66.64000000    97.14000000    17.55000000
   H     65.03000000    96.76000000    19.10000000
   H     63.30000000    95.28000000    18.38000000
   H     64.33000000    94.70000000    17.09000000
   H     62.81000000    96.52000000    16.47000000
   H     64.52000000    97.25000000    16.46000000
   N     66.65000000    95.23000000    20.48000000
   C     67.26000000    94.44000000    21.53000000
   H     68.16900000    94.93300000    21.87300000
   H     66.56400000    94.34200000    22.36300000
   H     67.50700000    93.45100000    21.14400000
   H     67.00000000    96.16000000    20.31000000
  Ca     67.83000000    91.41000000     9.09000000
   O     65.40000000    92.54000000     8.76000000
   H     64.95000000    93.30000000     9.12000000
   H     64.76000000    91.83000000     8.83000000
   O     67.48000000    88.56000000     9.47000000
   H     66.86000000    87.99000000     9.92000000
   H     68.22000000    87.99000000     9.27000000
   O     67.72000000    93.92000000    10.42000000
   H     67.04000000    94.57000000    10.25000000
   H     68.42000000    94.41000000    10.85000000
   O     70.33000000    92.44000000    10.01000000
   H     71.24000000    92.43000000     9.71000000
   H     70.38000000    92.65000000    10.94000000
   O     66.50000000    90.08000000     7.11000000
   H     66.30000000    89.23000000     7.51000000
   H     67.08000000    89.88000000     6.38000000
   O     69.79000000    90.17000000     8.00000000
   H     69.74000000    89.22000000     7.91000000
   H     70.54000000    90.42000000     7.45000000
   O     68.94000000    90.45000000    11.41000000
   H     68.74000000    89.65000000    11.89000000
   H     69.40000000    91.01000000    12.04000000

Ca 1.00



