%chk=loop4.apoCaM-CA-Ng.Init295.run26.water5.chk
%nprocshared=20
%mem=10GB
%nosave
#b3lyp/svp scf=(tight,noincore,xqc) Test 
#IOP(5/87=12) Density=Current Pop=(MK,readradii) iop(6/33=2) iop(6/42=6)

loop4.apoCaM-CA-Ng.Init295.run26.water5 

   -3  1 
   C     87.48000000    40.79000000    77.75000000
   C     88.66000000    40.06000000    77.14000000
   O     88.78000000    40.10000000    75.92000000
   H     86.61800000    40.12400000    77.78000000
   H     87.73100000    41.10500000    78.76300000
   H     87.24200000    41.66500000    77.14600000
   N     89.54000000    39.36000000    77.86000000
   C     90.52000000    38.41000000    77.36000000
   C     91.58000000    38.89000000    76.37000000
   O     92.17000000    38.07000000    75.68000000
   C     89.80000000    37.16000000    76.88000000
   C     88.78000000    36.61000000    77.87000000
   O     89.13000000    35.91000000    78.84000000
   O     87.55000000    36.83000000    77.81000000
   H     89.42000000    39.41000000    78.86000000
   H     91.14000000    38.07000000    78.18000000
   H     90.48000000    36.34000000    76.68000000
   H     89.23000000    37.26000000    75.95000000
   N     91.84000000    40.21000000    76.39000000
   C     92.82000000    40.87000000    75.56000000
   C     93.57000000    41.84000000    76.48000000
   O     92.90000000    42.74000000    76.97000000
   C     92.16000000    41.57000000    74.38000000
   C     91.27000000    40.70000000    73.50000000
   C     93.16000000    42.36000000    73.55000000
   C     90.21000000    41.50000000    72.74000000
   H     91.14000000    40.78000000    76.85000000
   H     93.56000000    40.13000000    75.25000000
   H     91.48000000    42.30000000    74.81000000
   H     90.74000000    39.98000000    74.12000000
   H     91.78000000    40.17000000    72.69000000
   H     93.87000000    42.98000000    74.11000000
   H     93.86000000    41.72000000    73.02000000
   H     92.54000000    43.04000000    72.96000000
   H     89.82000000    42.26000000    73.42000000
   H     90.52000000    41.81000000    71.75000000
   H     89.35000000    40.85000000    72.55000000
   N     94.84000000    41.66000000    76.84000000
   C     95.86000000    40.67000000    76.56000000
   C     95.61000000    39.22000000    76.94000000
   O     95.95000000    38.34000000    76.16000000
   C     97.22000000    41.13000000    77.06000000
   C     97.62000000    42.55000000    76.70000000
   O     97.03000000    43.54000000    77.18000000
   O     98.61000000    42.77000000    75.97000000
   H     95.30000000    42.43000000    77.30000000
   H     95.94000000    40.70000000    75.47000000
   H     97.97000000    40.45000000    76.65000000
   H     97.41000000    41.06000000    78.14000000
   N     94.90000000    39.03000000    78.05000000
   C     94.64000000    37.79000000    78.75000000
   C     95.78000000    36.78000000    78.83000000
   O     96.91000000    37.17000000    79.11000000
   H     94.54000000    39.84000000    78.54000000
   H     93.74000000    37.38000000    78.30000000
   H     94.36000000    38.04000000    79.77000000
   N     95.57000000    35.50000000    78.53000000
   C     96.61000000    34.51000000    78.34000000
   C     96.96000000    34.33000000    76.87000000
   O     97.78000000    33.46000000    76.56000000
   C     96.32000000    33.14000000    78.95000000
   C     95.05000000    32.33000000    78.68000000
   O     95.03000000    31.22000000    79.27000000
   O     94.19000000    32.63000000    77.83000000
   H     94.63000000    35.27000000    78.24000000
   H     97.53000000    34.83000000    78.82000000
   H     96.37000000    33.29000000    80.02000000
   H     97.21000000    32.52000000    78.83000000
   N     96.46000000    35.14000000    75.95000000
   C     96.57000000    34.91000000    74.52000000
   C     95.64000000    33.85000000    73.95000000
   O     95.73000000    33.64000000    72.74000000
   H     95.78000000    35.82000000    76.26000000
   H     97.60000000    34.65000000    74.27000000
   H     96.40000000    35.87000000    74.04000000
   N     94.93000000    33.12000000    74.81000000
   C     94.01000000    32.04000000    74.49000000
   C     93.02000000    32.25000000    73.35000000
   O     92.97000000    31.43000000    72.44000000
   C     94.89000000    30.83000000    74.24000000
   C     96.00000000    30.58000000    75.26000000
   C     96.40000000    29.12000000    75.15000000
   N     95.75000000    28.16000000    75.81000000
   O     97.30000000    28.76000000    74.39000000
   H     94.86000000    33.51000000    75.74000000
   H     93.48000000    31.73000000    75.39000000
   H     95.38000000    30.88000000    73.26000000
   H     94.23000000    29.97000000    74.32000000
   H     95.65000000    30.88000000    76.25000000
   H     96.83000000    31.27000000    75.09000000
   H     95.00000000    28.34000000    76.46000000
   H     96.11000000    27.22000000    75.73000000
   N     92.16000000    33.26000000    73.51000000
   C     91.12000000    33.60000000    72.55000000
   C     90.03000000    32.54000000    72.57000000
   O     89.68000000    32.04000000    73.63000000
   C     90.52000000    34.96000000    72.89000000
   C     91.52000000    36.10000000    72.69000000
   C     89.38000000    35.33000000    71.95000000
   H     92.20000000    33.73000000    74.40000000
   H     91.48000000    33.59000000    71.52000000
   H     90.17000000    34.85000000    73.91000000
   H     92.38000000    35.98000000    73.34000000
   H     91.83000000    36.14000000    71.64000000
   H     91.02000000    37.01000000    73.02000000
   H     89.14000000    36.39000000    71.96000000
   H     89.71000000    35.17000000    70.93000000
   H     88.51000000    34.72000000    72.22000000
   N     89.39000000    32.18000000    71.45000000
   C     88.35000000    31.18000000    71.33000000
   C     87.06000000    31.85000000    70.90000000
   O     86.94000000    32.64000000    69.96000000
   C     88.89000000    30.09000000    70.40000000
   C     87.98000000    28.92000000    70.07000000
   N     87.27000000    28.34000000    71.04000000
   O     87.83000000    28.58000000    68.90000000
   H     89.65000000    32.70000000    70.62000000
   H     88.23000000    30.68000000    72.29000000
   H     89.76000000    29.69000000    70.92000000
   H     89.34000000    30.54000000    69.51000000
   H     87.31000000    28.41000000    72.05000000
   H     86.79000000    27.54000000    70.65000000
   N     85.94000000    31.33000000    71.41000000
   C     84.62000000    31.85000000    71.13000000
   C     83.69000000    31.71000000    72.34000000
   O     82.49000000    31.52000000    72.20000000
   C     84.18000000    31.01000000    69.94000000
   C     83.08000000    31.56000000    69.05000000
   C     83.32000000    32.81000000    68.48000000
   C     81.84000000    30.93000000    68.91000000
   C     82.34000000    33.39000000    67.67000000
   C     80.85000000    31.45000000    68.06000000
   C     81.16000000    32.67000000    67.42000000
   O     80.21000000    33.24000000    66.64000000
   H     86.10000000    30.67000000    72.15000000
   H     84.71000000    32.92000000    70.94000000
   H     83.85000000    30.04000000    70.31000000
   H     85.02000000    30.82000000    69.27000000
   H     84.23000000    33.37000000    68.67000000
   H     81.59000000    29.99000000    69.37000000
   H     82.58000000    34.36000000    67.25000000
   H     79.90000000    30.98000000    67.85000000
   H     79.69000000    32.61000000    66.13000000
   N     84.19000000    31.90000000    73.56000000
   C     83.56000000    31.52000000    74.81000000
   C     82.23000000    32.15000000    75.18000000
   O     81.26000000    31.45000000    75.49000000
   C     84.54000000    31.61000000    75.97000000
   C     84.03000000    31.05000000    77.30000000
   C     85.06000000    31.26000000    78.40000000
   O     84.91000000    32.15000000    79.25000000
   O     85.94000000    30.38000000    78.57000000
   H     85.15000000    32.20000000    73.68000000
   H     83.42000000    30.44000000    74.74000000
   H     84.77000000    32.65000000    76.21000000
   H     85.44000000    31.03000000    75.75000000
   H     83.79000000    30.00000000    77.17000000
   H     83.10000000    31.54000000    77.59000000
   N     82.07000000    33.47000000    75.25000000
   C     82.97000000    34.52000000    74.81000000
   C     82.54000000    35.05000000    73.45000000
   O     81.39000000    34.85000000    73.04000000
   C     83.23000000    35.51000000    75.94000000
   C     82.02000000    36.42000000    76.17000000
   C     81.00000000    35.71000000    77.06000000
   O     81.05000000    35.79000000    78.30000000
   O     79.96000000    35.26000000    76.55000000
   H     81.19000000    33.75000000    75.65000000
   H     83.97000000    34.08000000    74.69000000
   H     84.01000000    36.16000000    75.55000000
   H     83.63000000    34.95000000    76.79000000
   H     81.56000000    36.72000000    75.24000000
   H     82.39000000    37.29000000    76.72000000
   N     83.40000000    35.85000000    72.82000000
   C     83.15000000    36.59000000    71.60000000
   H     82.36500000    37.32500000    71.77600000
   H     84.06200000    37.10100000    71.29100000
   H     82.83400000    35.90200000    70.81600000
   H     84.32000000    35.92000000    73.23000000
  Ca     86.95000000    36.29000000    80.42000000
   O     89.17000000    37.10000000    81.57000000
   H     90.01000000    37.21000000    81.12000000
   H     89.25000000    37.63000000    82.36000000
   O     85.53000000    34.26000000    82.13000000
   H     85.61000000    33.31000000    82.02000000
   H     84.85000000    34.37000000    82.80000000
   O     88.41000000    34.05000000    81.28000000
   H     87.92000000    34.05000000    82.11000000
   H     89.28000000    33.74000000    81.52000000
   O     86.58000000    33.98000000    78.83000000
   H     87.11000000    33.62000000    78.12000000
   H     85.95000000    33.28000000    79.03000000
   O     84.36000000    36.54000000    79.70000000
   H     83.62000000    37.12000000    79.57000000
   H     84.05000000    35.68000000    79.41000000

Ca 1.00



