%chk=loop2.holoCaM-CaMKII.run17.water2.chk
%nprocshared=20
%mem=10GB
%nosave
#b3lyp/svp scf=(tight,noincore,xqc) Test 
#IOP(5/87=12) Density=Current Pop=(MK,readradii) iop(6/33=2) iop(6/42=6)

loop2.holoCaM-CaMKII.run17.water2 

   -2  1 
   C     77.06000000    73.03000000     4.96000000
   C     77.83000000    72.34000000     3.84000000
   O     79.04000000    72.44000000     3.61000000
   H     76.06800000    72.58700000     5.04400000
   H     77.59500000    72.90300000     5.90100000
   H     76.96500000    74.09200000     4.73500000
   N     77.09000000    71.83000000     2.86000000
   C     77.60000000    71.14000000     1.69000000
   C     78.38000000    72.04000000     0.74000000
   O     77.86000000    72.97000000     0.14000000
   C     76.42000000    70.51000000     0.95000000
   C     76.99000000    69.67000000    -0.18000000
   O     77.96000000    68.91000000     0.05000000
   O     76.50000000    69.77000000    -1.32000000
   H     76.09000000    71.87000000     3.02000000
   H     78.25000000    70.34000000     2.07000000
   H     75.94000000    71.40000000     0.53000000
   H     75.76000000    69.94000000     1.60000000
   N     79.60000000    71.58000000     0.47000000
   C     80.45000000    71.99000000    -0.63000000
   C     80.96000000    71.00000000    -1.67000000
   O     81.98000000    71.29000000    -2.28000000
   C     81.58000000    72.80000000     0.00000000
   H     79.97000000    70.84000000     1.04000000
   H     79.88000000    72.65000000    -1.28000000
   H     82.10000000    73.37000000    -0.77000000
   H     81.12000000    73.55000000     0.66000000
   H     82.26000000    72.16000000     0.55000000
   N     80.27000000    69.89000000    -1.96000000
   C     80.78000000    68.92000000    -2.91000000
   C     79.71000000    68.09000000    -3.60000000
   O     79.91000000    67.38000000    -4.59000000
   C     81.87000000    68.01000000    -2.35000000
   C     81.51000000    67.62000000    -0.92000000
   O     80.32000000    67.34000000    -0.70000000
   O     82.35000000    67.33000000    -0.03000000
   H     79.44000000    69.67000000    -1.43000000
   H     81.16000000    69.51000000    -3.74000000
   H     82.84000000    68.50000000    -2.27000000
   H     81.95000000    67.10000000    -2.93000000
   N     78.57000000    68.07000000    -2.90000000
   C     77.39000000    67.31000000    -3.26000000
   C     77.44000000    65.80000000    -3.13000000
   O     76.75000000    65.08000000    -3.85000000
   H     78.55000000    68.53000000    -2.01000000
   H     77.29000000    67.58000000    -4.31000000
   H     76.57000000    67.72000000    -2.66000000
   N     78.28000000    65.28000000    -2.23000000
   C     78.35000000    63.86000000    -1.94000000
   C     77.13000000    63.27000000    -1.27000000
   O     76.92000000    62.06000000    -1.37000000
   C     79.68000000    63.66000000    -1.21000000
   C     79.97000000    64.34000000     0.12000000
   N     81.24000000    64.56000000     0.44000000
   O     79.12000000    64.76000000     0.91000000
   H     78.74000000    65.94000000    -1.61000000
   H     78.48000000    63.28000000    -2.85000000
   H     80.49000000    63.96000000    -1.88000000
   H     79.86000000    62.61000000    -1.00000000
   H     82.00000000    64.47000000    -0.22000000
   H     81.53000000    65.03000000     1.29000000
   N     76.32000000    64.10000000    -0.60000000
   C     75.22000000    63.67000000     0.25000000
   C     75.60000000    63.30000000     1.67000000
   O     74.74000000    62.82000000     2.41000000
   H     76.51000000    65.09000000    -0.59000000
   H     74.60000000    62.84000000    -0.09000000
   H     74.52000000    64.49000000     0.39000000
   N     76.80000000    63.58000000     2.18000000
   C     77.21000000    63.36000000     3.55000000
   C     77.86000000    64.58000000     4.20000000
   O     78.36000000    65.44000000     3.48000000
   C     78.19000000    62.19000000     3.59000000
   C     77.60000000    60.88000000     3.07000000
   O     79.25000000    62.35000000     2.68000000
   H     77.44000000    64.08000000     1.57000000
   H     76.38000000    62.95000000     4.12000000
   H     78.64000000    62.07000000     4.58000000
   H     79.47000000    63.29000000     2.62000000
   H     76.75000000    60.60000000     3.70000000
   H     77.22000000    60.92000000     2.05000000
   H     78.40000000    60.15000000     3.20000000
   N     77.82000000    64.59000000     5.53000000
   C     78.49000000    65.70000000     6.18000000
   C     79.93000000    65.22000000     6.32000000
   O     80.29000000    64.19000000     6.89000000
   C     77.88000000    66.00000000     7.55000000
   C     76.36000000    66.11000000     7.63000000
   C     78.58000000    67.26000000     8.06000000
   C     75.84000000    66.29000000     9.05000000
   H     77.34000000    63.88000000     6.08000000
   H     78.42000000    66.65000000     5.66000000
   H     78.14000000    65.21000000     8.25000000
   H     76.00000000    65.15000000     7.27000000
   H     75.93000000    66.92000000     7.04000000
   H     77.86000000    68.02000000     8.37000000
   H     79.19000000    66.92000000     8.89000000
   H     79.27000000    67.69000000     7.33000000
   H     76.44000000    67.07000000     9.54000000
   H     74.81000000    66.66000000     9.06000000
   H     75.89000000    65.34000000     9.58000000
   N     80.84000000    66.08000000     5.85000000
   C     82.29000000    65.98000000     5.89000000
   C     82.97000000    66.69000000     7.05000000
   O     82.38000000    67.60000000     7.63000000
   C     82.85000000    66.58000000     4.60000000
   C     82.22000000    65.88000000     3.41000000
   O     81.22000000    66.31000000     2.78000000
   O     82.80000000    64.83000000     3.06000000
   H     80.55000000    66.89000000     5.34000000
   H     82.52000000    64.92000000     5.95000000
   H     83.94000000    66.47000000     4.62000000
   H     82.65000000    67.64000000     4.70000000
   N     84.25000000    66.44000000     7.36000000
   C     84.87000000    67.06000000     8.51000000
   C     85.01000000    68.58000000     8.53000000
   O     84.77000000    69.17000000     9.58000000
   C     86.23000000    66.43000000     8.80000000
   C     86.66000000    66.50000000    10.24000000
   C     87.27000000    67.66000000    10.76000000
   C     86.10000000    65.56000000    11.11000000
   C     87.44000000    67.84000000    12.13000000
   C     86.23000000    65.74000000    12.49000000
   C     87.00000000    66.81000000    12.97000000
   H     84.59000000    65.63000000     6.87000000
   H     84.28000000    66.70000000     9.35000000
   H     87.00000000    66.94000000     8.22000000
   H     86.38000000    65.39000000     8.51000000
   H     87.67000000    68.41000000    10.09000000
   H     85.49000000    64.79000000    10.64000000
   H     87.95000000    68.71000000    12.52000000
   H     85.90000000    64.89000000    13.06000000
   H     87.10000000    66.83000000    14.05000000
   N     85.39000000    69.13000000     7.38000000
   C     85.42000000    70.57000000     7.21000000
   C     84.05000000    71.22000000     7.10000000
   O     83.95000000    72.44000000     7.18000000
   C     86.19000000    70.88000000     5.93000000
   C     86.96000000    69.59000000     5.70000000
   C     85.99000000    68.52000000     6.20000000
   H     85.94000000    70.99000000     8.07000000
   H     85.41000000    70.98000000     5.17000000
   H     86.79000000    71.79000000     5.95000000
   H     87.19000000    69.64000000     4.63000000
   H     87.86000000    69.62000000     6.31000000
   H     85.18000000    68.41000000     5.48000000
   H     86.42000000    67.53000000     6.34000000
   N     83.01000000    70.41000000     6.94000000
   C     81.66000000    70.93000000     6.87000000
   C     80.97000000    70.91000000     8.22000000
   O     80.15000000    71.74000000     8.63000000
   C     80.80000000    70.07000000     5.95000000
   C     81.31000000    70.02000000     4.51000000
   C     80.33000000    69.38000000     3.53000000
   O     80.46000000    69.54000000     2.30000000
   O     79.59000000    68.46000000     3.94000000
   H     83.14000000    69.40000000     6.90000000
   H     81.58000000    71.91000000     6.41000000
   H     79.76000000    70.40000000     5.91000000
   H     80.65000000    69.09000000     6.40000000
   H     82.26000000    69.50000000     4.46000000
   H     81.46000000    71.03000000     4.12000000
   N     81.39000000    69.91000000     9.00000000
   C     80.97000000    69.80000000    10.38000000
   H     79.93900000    69.44700000    10.41900000
   H     81.61500000    69.09300000    10.90200000
   H     81.03700000    70.77600000    10.86000000
   H     82.19000000    69.35000000     8.74000000
  Ca     79.27000000    67.30000000     1.66000000
   O     77.03000000    68.36000000     3.38000000
   H     76.22000000    68.76000000     3.69000000
   H     77.70000000    68.69000000     3.98000000
   O     76.58000000    66.53000000     1.46000000
   H     75.83000000    66.74000000     0.90000000
   H     76.39000000    66.97000000     2.29000000

Ca 1.00



