%chk=loop2.apoCaM-CA-Ng.Init293.run48.water6.chk
%nprocshared=20
%mem=10GB
%nosave
#b3lyp/svp scf=(tight,noincore,xqc) Test 
#IOP(5/87=12) Density=Current Pop=(MK,readradii) iop(6/33=2) iop(6/42=6)

loop2.apoCaM-CA-Ng.Init293.run48.water6 

   -2  1 
   C     53.97000000    79.20000000   108.68000000
   C     53.17000000    78.40000000   109.70000000
   O     52.02000000    78.78000000   109.91000000
   H     54.95500000    78.74900000   108.55700000
   H     53.44800000    79.19600000   107.72300000
   H     54.08200000    80.22700000   109.02900000
   N     53.62000000    77.30000000   110.30000000
   C     52.99000000    76.55000000   111.37000000
   C     52.58000000    77.51000000   112.48000000
   O     51.45000000    77.48000000   112.96000000
   C     54.01000000    75.51000000   111.82000000
   C     53.58000000    74.79000000   113.09000000
   O     52.44000000    74.29000000   113.19000000
   O     54.35000000    74.55000000   114.05000000
   H     54.62000000    77.16000000   110.23000000
   H     52.06000000    76.08000000   111.05000000
   H     54.97000000    76.01000000   111.93000000
   H     54.06000000    74.79000000   111.00000000
   N     53.36000000    78.52000000   112.87000000
   C     53.04000000    79.48000000   113.90000000
   C     51.91000000    80.44000000   113.52000000
   O     51.21000000    80.84000000   114.44000000
   C     52.93000000    78.82000000   115.27000000
   H     54.28000000    78.55000000   112.46000000
   H     53.92000000    80.11000000   113.78000000
   H     52.04000000    78.24000000   115.51000000
   H     53.84000000    78.24000000   115.44000000
   H     52.88000000    79.59000000   116.03000000
   N     51.63000000    80.73000000   112.24000000
   C     50.78000000    81.82000000   111.83000000
   C     49.32000000    81.75000000   112.25000000
   O     48.59000000    82.72000000   112.07000000
   C     51.44000000    83.18000000   112.09000000
   C     52.85000000    83.44000000   111.57000000
   O     53.81000000    83.36000000   112.36000000
   O     53.04000000    83.68000000   110.36000000
   H     52.33000000    80.37000000   111.61000000
   H     50.78000000    81.77000000   110.74000000
   H     51.37000000    83.60000000   113.09000000
   H     50.83000000    83.87000000   111.52000000
   N     48.85000000    80.67000000   112.88000000
   C     47.55000000    80.31000000   113.40000000
   C     46.42000000    80.58000000   112.42000000
   O     46.59000000    80.74000000   111.21000000
   H     49.52000000    79.93000000   112.99000000
   H     47.32000000    80.84000000   114.32000000
   H     47.53000000    79.26000000   113.70000000
   N     45.22000000    80.68000000   112.99000000
   C     43.92000000    80.79000000   112.35000000
   C     43.70000000    79.70000000   111.32000000
   O     43.37000000    79.95000000   110.16000000
   C     43.63000000    82.14000000   111.69000000
   C     43.48000000    83.23000000   112.74000000
   N     42.23000000    83.38000000   113.20000000
   O     44.44000000    83.81000000   113.24000000
   H     45.15000000    80.68000000   114.00000000
   H     43.15000000    80.52000000   113.08000000
   H     42.65000000    82.00000000   111.22000000
   H     44.36000000    82.46000000   110.95000000
   H     41.46000000    83.05000000   112.63000000
   H     41.99000000    84.21000000   113.71000000
   N     43.99000000    78.44000000   111.65000000
   C     43.99000000    77.26000000   110.80000000
   C     45.13000000    77.09000000   109.81000000
   O     45.29000000    76.01000000   109.26000000
   H     44.50000000    78.27000000   112.50000000
   H     43.09000000    77.17000000   110.20000000
   H     44.08000000    76.32000000   111.35000000
   N     45.90000000    78.18000000   109.63000000
   C     47.12000000    78.18000000   108.86000000
   C     47.08000000    79.33000000   107.85000000
   O     46.60000000    80.44000000   108.03000000
   C     48.36000000    78.25000000   109.75000000
   C     48.38000000    77.31000000   110.95000000
   O     49.46000000    77.96000000   108.92000000
   H     45.55000000    79.05000000   109.99000000
   H     47.17000000    77.32000000   108.19000000
   H     48.62000000    79.26000000   110.07000000
   H     50.27000000    78.25000000   109.36000000
   H     49.42000000    77.15000000   111.23000000
   H     47.89000000    77.76000000   111.81000000
   H     47.94000000    76.34000000   110.72000000
   N     47.58000000    78.97000000   106.67000000
   C     47.73000000    79.90000000   105.56000000
   C     48.61000000    81.04000000   106.03000000
   O     49.34000000    80.85000000   107.00000000
   C     48.20000000    79.16000000   104.31000000
   C     49.50000000    78.37000000   104.47000000
   C     46.98000000    78.33000000   103.91000000
   C     50.02000000    77.64000000   103.24000000
   H     47.94000000    78.03000000   106.60000000
   H     46.76000000    80.37000000   105.40000000
   H     48.47000000    79.86000000   103.52000000
   H     49.39000000    77.72000000   105.34000000
   H     50.27000000    79.10000000   104.73000000
   H     47.13000000    77.91000000   102.92000000
   H     46.82000000    77.48000000   104.57000000
   H     46.09000000    78.94000000   103.79000000
   H     49.27000000    77.27000000   102.54000000
   H     50.63000000    78.25000000   102.57000000
   H     50.55000000    76.78000000   103.65000000
   N     48.46000000    82.23000000   105.45000000
   C     49.12000000    83.49000000   105.76000000
   C     48.01000000    84.49000000   106.06000000
   O     47.59000000    85.24000000   105.18000000
   C     50.07000000    83.90000000   104.64000000
   C     50.98000000    85.07000000   104.96000000
   O     51.25000000    85.26000000   106.17000000
   O     51.49000000    85.68000000   103.99000000
   H     47.89000000    82.21000000   104.61000000
   H     49.65000000    83.29000000   106.70000000
   H     49.52000000    84.06000000   103.72000000
   H     50.73000000    83.08000000   104.35000000
   N     47.50000000    84.43000000   107.29000000
   C     46.69000000    85.47000000   107.90000000
   C     45.30000000    85.69000000   107.33000000
   O     44.97000000    86.86000000   107.15000000
   C     46.58000000    85.14000000   109.38000000
   C     45.72000000    86.06000000   110.21000000
   C     44.49000000    85.60000000   110.68000000
   C     46.09000000    87.39000000   110.44000000
   C     43.64000000    86.40000000   111.45000000
   C     45.18000000    88.22000000   111.11000000
   C     43.97000000    87.76000000   111.62000000
   H     47.82000000    83.69000000   107.90000000
   H     47.20000000    86.39000000   107.61000000
   H     47.56000000    85.14000000   109.87000000
   H     46.20000000    84.13000000   109.47000000
   H     44.24000000    84.57000000   110.48000000
   H     47.02000000    87.73000000   110.01000000
   H     42.70000000    86.02000000   111.82000000
   H     45.42000000    89.27000000   111.22000000
   H     43.26000000    88.46000000   112.03000000
   N     44.50000000    84.67000000   107.00000000
   C     44.53000000    83.25000000   107.26000000
   C     44.79000000    82.45000000   106.00000000
   O     44.34000000    81.30000000   105.93000000
   C     43.17000000    83.00000000   107.92000000
   C     42.28000000    83.82000000   106.99000000
   C     43.18000000    84.94000000   106.48000000
   H     45.31000000    82.96000000   107.96000000
   H     42.93000000    81.94000000   107.79000000
   H     43.11000000    83.33000000   108.95000000
   H     42.02000000    83.16000000   106.16000000
   H     41.44000000    84.25000000   107.54000000
   H     43.21000000    85.05000000   105.39000000
   H     42.79000000    85.93000000   106.74000000
   N     45.29000000    83.03000000   104.91000000
   C     44.83000000    82.66000000   103.58000000
   C     45.87000000    81.96000000   102.71000000
   O     47.06000000    82.25000000   102.87000000
   C     44.25000000    83.89000000   102.89000000
   C     45.31000000    84.92000000   102.52000000
   C     44.66000000    86.30000000   102.45000000
   O     43.46000000    86.52000000   102.19000000
   O     45.42000000    87.29000000   102.58000000
   H     45.62000000    83.98000000   104.97000000
   H     43.98000000    81.98000000   103.60000000
   H     43.42000000    84.31000000   103.46000000
   H     43.75000000    83.46000000   102.01000000
   H     45.86000000    84.66000000   101.62000000
   H     46.04000000    84.99000000   103.33000000
   N     45.51000000    81.18000000   101.69000000
   C     46.41000000    80.81000000   100.61000000
   H     47.36900000    80.50200000   101.02600000
   H     45.97900000    79.98500000   100.04300000
   H     46.55900000    81.66500000    99.95100000
   H     44.53000000    80.97000000   101.58000000
  Ca     52.70000000    84.22000000   107.93100000
   O     51.60000000    81.88000000   107.98100000
   H     51.95000000    81.33000000   108.69100000
   H     50.81000000    81.42000000   107.69100000
   O     53.71000000    83.26000000   105.46100000
   H     54.35000000    82.58000000   105.23100000
   H     53.85000000    83.95000000   104.82100000
   O     54.77000000    82.64000000   108.19100000
   H     55.04000000    82.57000000   109.11100000
   H     55.58000000    82.79000000   107.71100000
   O     50.25000000    84.43000000   109.09100000
   H     49.45000000    83.91000000   109.08100000
   H     49.96000000    85.32000000   109.30100000
   O     52.61000000    86.74000000   108.84100000
   H     51.77000000    86.97000000   109.23100000
   H     52.91000000    87.55000000   108.43100000
   O     54.66000000    85.63000000   107.05100000
   H     55.51000000    85.93000000   107.37100000
   H     54.61000000    85.95000000   106.15100000

Ca 1.00



