%chk=loop2.holoCaM-CaMKII.run61.water1.chk
%nprocshared=20
%mem=10GB
%nosave
#b3lyp/svp scf=(tight,noincore,xqc) Test 
#IOP(5/87=12) Density=Current Pop=(MK,readradii) iop(6/33=2) iop(6/42=6)

loop2.holoCaM-CaMKII.run61.water1 

   -2  1 
   C      5.41000000    51.12000000    36.49000000
   C      4.73000000    52.47000000    36.66000000
   O      5.39000000    53.50000000    36.82000000
   H      6.37500000    51.13400000    36.99600000
   H      4.78400000    50.34000000    36.92400000
   H      5.55900000    50.91900000    35.42900000
   N      3.41000000    52.55000000    36.45000000
   C      2.69000000    53.80000000    36.41000000
   C      2.42000000    54.44000000    37.76000000
   O      2.39000000    53.74000000    38.77000000
   C      1.41000000    53.57000000    35.61000000
   C      0.78000000    54.74000000    34.87000000
   O      1.23000000    55.89000000    34.96000000
   O     -0.27000000    54.45000000    34.25000000
   H      2.94000000    51.78000000    36.00000000
   H      3.33000000    54.46000000    35.83000000
   H      0.64000000    53.11000000    36.23000000
   H      1.55000000    52.78000000    34.87000000
   N      2.17000000    55.75000000    37.74000000
   C      1.71000000    56.57000000    38.84000000
   C      0.89000000    57.79000000    38.43000000
   O      0.93000000    58.77000000    39.17000000
   C      2.97000000    56.91000000    39.62000000
   H      2.41000000    56.16000000    36.85000000
   H      0.95000000    56.03000000    39.40000000
   H      3.69000000    57.50000000    39.05000000
   H      2.65000000    57.54000000    40.45000000
   H      3.47000000    56.01000000    39.97000000
   N      0.31000000    57.75000000    37.23000000
   C     -0.51000000    58.85000000    36.76000000
   C     -1.60000000    58.55000000    35.74000000
   O     -2.34000000    59.47000000    35.38000000
   C      0.40000000    59.91000000    36.15000000
   C      1.36000000    59.36000000    35.11000000
   O      0.80000000    58.70000000    34.21000000
   O      2.61000000    59.44000000    35.21000000
   H      0.70000000    57.10000000    36.55000000
   H     -1.09000000    59.31000000    37.56000000
   H      0.98000000    60.32000000    36.98000000
   H     -0.04000000    60.84000000    35.80000000
   N     -1.60000000    57.33000000    35.21000000
   C     -2.50000000    56.87000000    34.17000000
   C     -2.46000000    57.49000000    32.78000000
   O     -3.37000000    57.23000000    32.01000000
   H     -0.82000000    56.74000000    35.48000000
   H     -3.52000000    57.08000000    34.48000000
   H     -2.40000000    55.79000000    34.04000000
   N     -1.41000000    58.26000000    32.46000000
   C     -1.31000000    58.97000000    31.20000000
   C     -0.93000000    58.21000000    29.94000000
   O     -0.67000000    58.79000000    28.89000000
   C     -0.40000000    60.15000000    31.51000000
   C      1.09000000    59.84000000    31.49000000
   N      1.92000000    60.86000000    31.68000000
   O      1.56000000    58.73000000    31.25000000
   H     -0.71000000    58.31000000    33.18000000
   H     -2.33000000    59.35000000    31.12000000
   H     -0.53000000    60.58000000    32.51000000
   H     -0.54000000    60.96000000    30.79000000
   H      1.64000000    61.81000000    31.90000000
   H      2.90000000    60.62000000    31.61000000
   N     -0.95000000    56.88000000    30.02000000
   C     -0.81000000    55.94000000    28.92000000
   C      0.62000000    55.87000000    28.39000000
   O      0.75000000    55.21000000    27.36000000
   H     -1.21000000    56.43000000    30.88000000
   H     -1.36000000    56.26000000    28.04000000
   H     -1.24000000    54.98000000    29.17000000
   N      1.68000000    56.35000000    29.04000000
   C      3.03000000    56.47000000    28.54000000
   C      4.06000000    56.27000000    29.65000000
   O      3.67000000    56.56000000    30.78000000
   C      3.35000000    57.85000000    27.95000000
   C      2.60000000    58.08000000    26.65000000
   O      3.10000000    58.95000000    28.79000000
   H      1.48000000    56.72000000    29.96000000
   H      3.23000000    55.79000000    27.71000000
   H      4.40000000    57.86000000    27.66000000
   H      2.80000000    58.74000000    29.68000000
   H      2.77000000    57.29000000    25.91000000
   H      1.54000000    58.24000000    26.88000000
   H      3.00000000    59.03000000    26.31000000
   N      5.31000000    55.94000000    29.33000000
   C      6.40000000    55.90000000    30.28000000
   C      6.94000000    57.32000000    30.30000000
   O      7.51000000    57.84000000    29.34000000
   C      7.50000000    54.89000000    29.95000000
   C      6.95000000    53.54000000    29.52000000
   C      8.50000000    54.72000000    31.10000000
   C      7.98000000    52.57000000    28.95000000
   H      5.47000000    55.83000000    28.34000000
   H      6.00000000    55.66000000    31.26000000
   H      8.11000000    55.23000000    29.12000000
   H      6.23000000    53.74000000    28.73000000
   H      6.45000000    53.06000000    30.36000000
   H      9.43000000    54.27000000    30.74000000
   H      8.71000000    55.70000000    31.52000000
   H      8.08000000    54.02000000    31.82000000
   H      8.57000000    52.94000000    28.12000000
   H      8.74000000    52.22000000    29.65000000
   H      7.44000000    51.65000000    28.73000000
   N      6.84000000    58.05000000    31.42000000
   C      7.59000000    59.21000000    31.84000000
   C      8.92000000    58.75000000    32.43000000
   O      8.97000000    57.69000000    33.05000000
   C      6.73000000    59.98000000    32.84000000
   C      5.24000000    60.08000000    32.58000000
   O      4.68000000    59.08000000    33.08000000
   O      4.67000000    61.15000000    32.30000000
   H      6.32000000    57.64000000    32.18000000
   H      7.73000000    59.85000000    30.97000000
   H      7.07000000    61.01000000    32.85000000
   H      6.90000000    59.48000000    33.79000000
   N      9.98000000    59.55000000    32.49000000
   C     11.29000000    59.14000000    32.96000000
   C     11.33000000    58.70000000    34.42000000
   O     12.11000000    57.78000000    34.61000000
   C     12.35000000    60.21000000    32.71000000
   C     13.75000000    59.83000000    33.13000000
   C     14.17000000    60.15000000    34.42000000
   C     14.60000000    59.08000000    32.30000000
   C     15.50000000    59.92000000    34.80000000
   C     15.89000000    58.74000000    32.73000000
   C     16.34000000    59.16000000    33.98000000
   H      9.91000000    60.38000000    31.92000000
   H     11.63000000    58.28000000    32.38000000
   H     12.09000000    61.16000000    33.19000000
   H     12.34000000    60.43000000    31.64000000
   H     13.56000000    60.74000000    35.09000000
   H     14.22000000    58.75000000    31.34000000
   H     15.82000000    60.34000000    35.74000000
   H     16.50000000    58.24000000    31.99000000
   H     17.37000000    58.95000000    34.26000000
   N     10.56000000    59.15000000    35.42000000
   C     10.52000000    58.57000000    36.75000000
   C     10.02000000    57.15000000    36.94000000
   O     10.20000000    56.53000000    37.99000000
   C      9.56000000    59.45000000    37.54000000
   C      9.53000000    60.81000000    36.85000000
   C      9.83000000    60.40000000    35.41000000
   H     11.53000000    58.67000000    37.14000000
   H      8.52000000    59.11000000    37.57000000
   H      9.96000000    59.48000000    38.56000000
   H      8.59000000    61.36000000    36.86000000
   H     10.26000000    61.50000000    37.26000000
   H      8.89000000    60.21000000    34.89000000
   H     10.45000000    61.17000000    34.94000000
   N      9.36000000    56.58000000    35.93000000
   C      8.79000000    55.25000000    35.82000000
   C      9.76000000    54.39000000    35.02000000
   O      9.82000000    53.17000000    35.13000000
   C      7.49000000    55.32000000    35.01000000
   C      6.39000000    56.16000000    35.64000000
   C      5.04000000    56.11000000    34.94000000
   O      4.04000000    56.63000000    35.48000000
   O      4.92000000    55.86000000    33.72000000
   H      9.19000000    57.19000000    35.15000000
   H      8.69000000    54.81000000    36.81000000
   H      7.15000000    54.29000000    34.90000000
   H      7.67000000    55.71000000    34.01000000
   H      6.79000000    57.17000000    35.57000000
   H      6.21000000    55.90000000    36.68000000
   N     10.55000000    54.97000000    34.11000000
   C     11.51000000    54.32000000    33.25000000
   H     12.44400000    54.17500000    33.79300000
   H     11.12000000    53.35200000    32.93500000
   H     11.69300000    54.94200000    32.37400000
   H     10.47000000    55.97000000    34.04000000
  Ca      2.80000000    57.37000000    33.39000000
   O      1.22000000    55.64000000    32.04000000
   H      1.86000000    54.97000000    32.27000000
   H      0.37000000    55.22000000    32.17000000

Ca 1.00



