%chk=loop3.apoCaM-CA-Ng.Init31.run15.water6.chk
%nprocshared=20
%mem=10GB
%nosave
#b3lyp/svp scf=(tight,noincore,xqc) Test 
#IOP(5/87=12) Density=Current Pop=(MK,readradii) iop(6/33=2) iop(6/42=6)

loop3.apoCaM-CA-Ng.Init31.run15.water6 

   0  1 
   C     94.77000000    89.06000000    22.34000000
   C     95.21000000    87.70000000    22.87000000
   O     95.25000000    86.76000000    22.08000000
   H     93.84900000    89.36200000    22.83800000
   H     95.54800000    89.79700000    22.53800000
   H     94.59700000    88.99300000    21.26600000
   N     95.61000000    87.63000000    24.14000000
   C     96.01000000    86.36000000    24.72000000
   C     95.89000000    86.30000000    26.23000000
   O     95.61000000    85.23000000    26.77000000
   C     97.41000000    85.95000000    24.26000000
   C     98.49000000    87.00000000    24.51000000
   O     99.37000000    87.06000000    23.63000000
   O     98.42000000    87.75000000    25.51000000
   H     95.67000000    88.48000000    24.69000000
   H     95.44000000    85.56000000    24.25000000
   H     97.44000000    85.66000000    23.21000000
   H     97.76000000    85.07000000    24.80000000
   N     95.96000000    87.42000000    26.96000000
   C     95.86000000    87.58000000    28.40000000
   C     97.23000000    87.27000000    28.98000000
   O     98.23000000    87.93000000    28.72000000
   C     95.36000000    88.92000000    28.92000000
   C     94.06000000    89.43000000    28.31000000
   C     92.90000000    88.46000000    28.09000000
   C     91.72000000    89.09000000    27.35000000
   N     91.20000000    90.26000000    28.07000000
   H     96.29000000    88.22000000    26.44000000
   H     95.12000000    86.88000000    28.80000000
   H     96.06000000    89.74000000    28.78000000
   H     95.27000000    88.81000000    30.00000000
   H     94.19000000    89.96000000    27.37000000
   H     93.70000000    90.16000000    29.04000000
   H     92.55000000    88.18000000    29.09000000
   H     93.20000000    87.58000000    27.52000000
   H     91.03000000    88.25000000    27.28000000
   H     92.03000000    89.24000000    26.31000000
   H     90.30000000    90.65000000    27.84000000
   H     91.07000000    90.15000000    29.06000000
   H     91.82000000    91.05000000    28.10000000
   N     97.33000000    86.11000000    29.64000000
   C     98.59000000    85.45000000    29.93000000
   C     98.89000000    84.39000000    28.88000000
   O     99.80000000    83.61000000    29.15000000
   C     98.48000000    84.83000000    31.32000000
   C     97.35000000    83.82000000    31.45000000
   O     96.18000000    84.24000000    31.60000000
   O     97.63000000    82.62000000    31.27000000
   H     96.52000000    85.54000000    29.81000000
   H     99.33000000    86.25000000    30.00000000
   H     98.32000000    85.66000000    32.01000000
   H     99.38000000    84.29000000    31.61000000
   N     98.21000000    84.34000000    27.74000000
   C     98.41000000    83.25000000    26.80000000
   C     99.63000000    83.28000000    25.90000000
   O    100.37000000    84.26000000    25.81000000
   H     97.66000000    85.14000000    27.46000000
   H     97.52000000    83.13000000    26.18000000
   H     98.57000000    82.35000000    27.40000000
   N     99.89000000    82.27000000    25.07000000
   C     99.36000000    80.92000000    24.97000000
   C     99.21000000    80.50000000    23.51000000
   O    100.06000000    79.86000000    22.91000000
   C    100.20000000    79.89000000    25.72000000
   C    100.10000000    79.90000000    27.24000000
   N     98.88000000    79.69000000    27.76000000
   O    101.04000000    80.25000000    27.94000000
   H    100.86000000    82.38000000    24.81000000
   H     98.33000000    80.95000000    25.32000000
   H    101.25000000    79.85000000    25.43000000
   H     99.92000000    78.88000000    25.41000000
   H     98.14000000    79.42000000    27.13000000
   H     98.79000000    79.73000000    28.77000000
   N     98.21000000    81.05000000    22.82000000
   C     97.01000000    81.79000000    23.14000000
   C     95.91000000    81.00000000    23.82000000
   O     95.21000000    81.38000000    24.76000000
   H     98.35000000    80.82000000    21.84000000
   H     96.59000000    82.11000000    22.18000000
   H     97.20000000    82.69000000    23.73000000
   N     95.75000000    79.74000000    23.41000000
   C     95.08000000    78.77000000    24.25000000
   C     95.69000000    78.73000000    25.64000000
   O     96.90000000    78.94000000    25.79000000
   C     95.23000000    77.39000000    23.63000000
   C     94.67000000    77.19000000    22.24000000
   C     93.52000000    77.91000000    21.90000000
   C     95.32000000    76.46000000    21.23000000
   C     93.05000000    77.88000000    20.59000000
   C     94.81000000    76.33000000    19.93000000
   C     93.64000000    77.04000000    19.61000000
   O     93.15000000    77.10000000    18.34000000
   H     96.36000000    79.36000000    22.70000000
   H     94.03000000    79.00000000    24.46000000
   H     94.76000000    76.65000000    24.27000000
   H     96.30000000    77.17000000    23.59000000
   H     93.00000000    78.56000000    22.59000000
   H     96.27000000    75.96000000    21.37000000
   H     92.28000000    78.56000000    20.26000000
   H     95.44000000    75.85000000    19.19000000
   H     93.65000000    76.44000000    17.85000000
   N     94.95000000    78.29000000    26.66000000
   C     95.23000000    78.46000000    28.07000000
   C     95.07000000    77.19000000    28.89000000
   O     95.44000000    77.25000000    30.06000000
   C     94.22000000    79.46000000    28.61000000
   C     94.46000000    80.84000000    28.01000000
   C     92.74000000    79.18000000    28.39000000
   C     95.87000000    81.43000000    28.14000000
   H     94.02000000    77.94000000    26.45000000
   H     96.24000000    78.85000000    28.23000000
   H     94.45000000    79.49000000    29.68000000
   H     93.74000000    81.55000000    28.43000000
   H     94.17000000    80.87000000    26.96000000
   H     92.14000000    79.78000000    29.07000000
   H     92.49000000    79.35000000    27.35000000
   H     92.42000000    78.18000000    28.69000000
   H     96.58000000    80.97000000    27.45000000
   H     95.85000000    82.48000000    27.85000000
   H     96.24000000    81.31000000    29.16000000
   N     94.44000000    76.13000000    28.37000000
   C     94.31000000    74.88000000    29.10000000
   C     93.12000000    74.92000000    30.04000000
   O     92.15000000    75.63000000    29.79000000
   C     94.05000000    73.61000000    28.30000000
   O     95.26000000    73.29000000    27.65000000
   H     94.14000000    76.15000000    27.41000000
   H     95.14000000    74.66000000    29.77000000
   H     93.25000000    73.84000000    27.59000000
   H     93.75000000    72.72000000    28.86000000
   H     95.17000000    72.61000000    26.99000000
   N     93.14000000    74.15000000    31.13000000
   C     92.08000000    74.01000000    32.10000000
   C     92.04000000    75.13000000    33.13000000
   O     93.11000000    75.59000000    33.53000000
   C     92.37000000    72.68000000    32.79000000
   H     93.91000000    73.50000000    31.19000000
   H     91.05000000    73.96000000    31.74000000
   H     92.14000000    71.86000000    32.11000000
   H     93.42000000    72.58000000    33.07000000
   H     91.68000000    72.58000000    33.63000000
   N     90.84000000    75.46000000    33.61000000
   C     90.43000000    76.46000000    34.57000000
   C     90.98000000    77.85000000    34.27000000
   O     91.43000000    78.56000000    35.18000000
   C     90.51000000    75.95000000    36.01000000
   H     90.04000000    75.06000000    33.15000000
   H     89.38000000    76.68000000    34.41000000
   H     90.24000000    74.90000000    35.99000000
   H     91.46000000    76.04000000    36.53000000
   H     89.75000000    76.42000000    36.64000000
   N     90.87000000    78.20000000    32.99000000
   C     91.34000000    79.48000000    32.52000000
   C     90.42000000    80.13000000    31.49000000
   O     90.66000000    81.31000000    31.27000000
   C     92.78000000    79.31000000    32.02000000
   C     93.79000000    79.01000000    33.12000000
   C     95.25000000    79.13000000    32.70000000
   O     95.68000000    80.15000000    32.11000000
   O     96.14000000    78.42000000    33.20000000
   H     90.41000000    77.60000000    32.32000000
   H     91.38000000    80.25000000    33.30000000
   H     93.02000000    80.31000000    31.65000000
   H     92.82000000    78.53000000    31.27000000
   H     93.70000000    77.96000000    33.41000000
   H     93.59000000    79.70000000    33.94000000
   N     89.47000000    79.41000000    30.89000000
   C     88.37000000    80.09000000    30.24000000
   H     87.54200000    80.19300000    30.94100000
   H     88.69400000    81.07800000    29.91500000
   H     88.04400000    79.51100000    29.37600000
   H     89.42000000    78.41000000    31.00000000
  Ca     98.15000000    80.36000000    32.58000000
   O    100.61700000    79.41000000    32.51000000
   H    100.97700000    78.76000000    31.91000000
   H    101.18700000    79.38000000    33.27000000
   O     99.77700000    82.23000000    33.40000000
   H    100.69700000    82.29000000    33.14000000
   H     99.69700000    82.85000000    34.13000000
   O     99.10000000    79.37000000    34.94000000
   H     98.39000000    78.95000000    35.43000000
   H     99.51000000    79.95000000    35.59000000
   O     96.79000000    81.50000000    34.61000000
   H     96.32000000    82.31000000    34.40000000
   H     96.58000000    81.34000000    35.54000000
   O     97.87000000    78.32000000    30.74000000
   H     98.44000000    77.55000000    30.75000000
   H     96.99000000    77.95000000    30.82000000
   O     99.58000000    80.96000000    30.18000000
   H    100.32000000    80.96000000    29.58000000
   H     99.13000000    81.79000000    30.01000000

Ca 1.00



