%chk=loop4.apoCaM-CA-Ng.Init293.run97.water3.chk
%nprocshared=20
%mem=10GB
%nosave
#b3lyp/svp scf=(tight,noincore,xqc) Test 
#IOP(5/87=12) Density=Current Pop=(MK,readradii) iop(6/33=2) iop(6/42=6)

loop4.apoCaM-CA-Ng.Init293.run97.water3 

   -3  1 
   C     90.99000000    81.87000000    43.44000000
   C     91.84000000    80.65000000    43.76000000
   O     91.76000000    79.62000000    43.10000000
   H     90.06100000    81.82500000    44.00900000
   H     91.53600000    82.77400000    43.70800000
   H     90.76200000    81.88500000    42.37400000
   N     92.67000000    80.71000000    44.81000000
   C     93.66000000    79.85000000    45.43000000
   C     94.77000000    79.34000000    44.52000000
   O     95.76000000    78.77000000    44.97000000
   C     92.91000000    78.72000000    46.13000000
   C     92.03000000    77.79000000    45.32000000
   O     90.85000000    77.64000000    45.73000000
   O     92.49000000    77.18000000    44.33000000
   H     92.63000000    81.62000000    45.25000000
   H     94.02000000    80.56000000    46.18000000
   H     92.48000000    79.12000000    47.05000000
   H     93.66000000    78.08000000    46.58000000
   N     94.71000000    79.45000000    43.20000000
   C     95.70000000    78.90000000    42.29000000
   C     95.15000000    77.54000000    41.88000000
   O     93.95000000    77.47000000    41.66000000
   C     95.87000000    79.80000000    41.07000000
   C     96.86000000    80.95000000    41.22000000
   C     94.57000000    80.32000000    40.46000000
   C     96.52000000    81.91000000    42.35000000
   H     93.91000000    79.87000000    42.74000000
   H     96.69000000    78.74000000    42.73000000
   H     96.36000000    79.16000000    40.34000000
   H     97.00000000    81.49000000    40.28000000
   H     97.84000000    80.62000000    41.55000000
   H     94.71000000    80.64000000    39.43000000
   H     93.78000000    79.58000000    40.34000000
   H     94.20000000    81.15000000    41.06000000
   H     95.72000000    82.61000000    42.12000000
   H     96.59000000    81.45000000    43.34000000
   H     97.41000000    82.54000000    42.37000000
   N     96.02000000    76.56000000    41.61000000
   C     95.60000000    75.24000000    41.19000000
   C     95.05000000    74.42000000    42.34000000
   O     95.45000000    74.69000000    43.47000000
   C     96.83000000    74.59000000    40.56000000
   C     97.97000000    74.33000000    41.54000000
   O     98.19000000    73.14000000    41.83000000
   O     98.63000000    75.30000000    41.96000000
   H     97.02000000    76.66000000    41.75000000
   H     94.76000000    75.47000000    40.53000000
   H     97.22000000    75.18000000    39.73000000
   H     96.39000000    73.69000000    40.13000000
   N     94.17000000    73.42000000    42.23000000
   C     93.58000000    72.96000000    40.99000000
   C     92.63000000    73.88000000    40.23000000
   O     92.39000000    75.02000000    40.63000000
   H     93.99000000    72.81000000    43.01000000
   H     93.07000000    72.03000000    41.24000000
   H     94.39000000    72.71000000    40.31000000
   N     92.34000000    73.49000000    38.99000000
   C     92.72000000    72.28000000    38.29000000
   C     92.81000000    72.73000000    36.84000000
   O     91.80000000    72.57000000    36.15000000
   C     91.65000000    71.25000000    38.63000000
   C     91.71000000    69.96000000    37.82000000
   O     90.77000000    69.14000000    37.82000000
   O     92.83000000    69.55000000    37.44000000
   H     91.88000000    74.14000000    38.37000000
   H     93.68000000    71.89000000    38.64000000
   H     90.65000000    71.67000000    38.53000000
   H     91.79000000    70.94000000    39.66000000
   N     93.85000000    73.41000000    36.35000000
   C     95.23000000    73.43000000    36.79000000
   C     96.09000000    74.54000000    36.22000000
   O     96.92000000    75.06000000    36.97000000
   H     93.65000000    73.86000000    35.46000000
   H     95.68000000    72.45000000    36.62000000
   H     95.16000000    73.72000000    37.84000000
   N     95.97000000    74.94000000    34.96000000
   C     96.72000000    76.03000000    34.38000000
   C     95.76000000    77.16000000    34.05000000
   O     95.06000000    77.08000000    33.04000000
   C     97.47000000    75.52000000    33.15000000
   C     98.60000000    74.63000000    33.64000000
   C     98.27000000    73.14000000    33.66000000
   N     99.29000000    72.33000000    33.96000000
   O     97.20000000    72.67000000    33.27000000
   H     95.25000000    74.63000000    34.31000000
   H     97.41000000    76.48000000    35.10000000
   H     98.00000000    76.39000000    32.77000000
   H     96.87000000    75.08000000    32.35000000
   H     99.02000000    74.89000000    34.61000000
   H     99.38000000    74.79000000    32.89000000
   H    100.21000000    72.69000000    34.13000000
   H     99.04000000    71.35000000    33.90000000
   N     95.76000000    78.22000000    34.87000000
   C     95.25000000    79.53000000    34.49000000
   C     93.81000000    79.76000000    34.89000000
   O     93.38000000    79.11000000    35.85000000
   C     96.21000000    80.61000000    34.99000000
   C     97.55000000    80.60000000    34.26000000
   C     96.48000000    80.75000000    36.48000000
   H     96.35000000    78.07000000    35.67000000
   H     95.15000000    79.55000000    33.41000000
   H     95.73000000    81.54000000    34.68000000
   H     98.15000000    79.72000000    34.49000000
   H     97.45000000    80.72000000    33.18000000
   H     98.22000000    81.42000000    34.51000000
   H     96.99000000    81.70000000    36.64000000
   H     95.52000000    80.63000000    36.98000000
   H     97.17000000    79.97000000    36.80000000
   N     93.08000000    80.66000000    34.22000000
   C     91.75000000    81.10000000    34.57000000
   C     90.64000000    80.22000000    34.03000000
   O     89.53000000    80.21000000    34.57000000
   C     91.68000000    82.57000000    34.17000000
   C     90.48000000    83.37000000    34.65000000
   N     89.56000000    83.67000000    33.72000000
   O     90.24000000    83.62000000    35.83000000
   H     93.58000000    81.19000000    33.51000000
   H     91.62000000    81.19000000    35.65000000
   H     91.77000000    82.67000000    33.09000000
   H     92.52000000    83.13000000    34.59000000
   H     89.68000000    83.31000000    32.79000000
   H     88.70000000    84.12000000    33.98000000
   N     90.93000000    79.37000000    33.05000000
   C     90.12000000    78.22000000    32.70000000
   C     89.48000000    77.52000000    33.88000000
   O     90.26000000    76.98000000    34.66000000
   C     90.89000000    77.24000000    31.82000000
   C     91.39000000    77.74000000    30.48000000
   C     90.67000000    77.49000000    29.31000000
   C     92.64000000    78.33000000    30.29000000
   C     91.05000000    77.94000000    28.04000000
   C     93.12000000    78.80000000    29.06000000
   C     92.26000000    78.67000000    27.95000000
   O     92.78000000    79.11000000    26.77000000
   H     91.83000000    79.49000000    32.59000000
   H     89.33000000    78.53000000    32.01000000
   H     90.28000000    76.38000000    31.52000000
   H     91.69000000    76.83000000    32.43000000
   H     89.68000000    77.08000000    29.48000000
   H     93.19000000    78.56000000    31.19000000
   H     90.45000000    77.82000000    27.15000000
   H     94.03000000    79.36000000    28.96000000
   H     92.46000000    78.73000000    25.95000000
   N     88.15000000    77.33000000    33.93000000
   C     87.47000000    76.70000000    35.05000000
   C     87.59000000    77.40000000    36.39000000
   O     86.95000000    76.96000000    37.34000000
   C     87.77000000    75.22000000    35.22000000
   C     87.70000000    74.28000000    34.01000000
   C     86.27000000    74.17000000    33.51000000
   O     85.75000000    73.03000000    33.45000000
   O     85.68000000    75.16000000    33.03000000
   H     87.53000000    77.80000000    33.30000000
   H     86.40000000    76.83000000    34.87000000
   H     87.22000000    74.84000000    36.08000000
   H     88.83000000    75.21000000    35.50000000
   H     88.04000000    73.27000000    34.23000000
   H     88.45000000    74.54000000    33.27000000
   N     88.26000000    78.56000000    36.48000000
   C     88.27000000    79.35000000    37.69000000
   C     87.01000000    80.20000000    37.78000000
   O     86.60000000    80.64000000    38.86000000
   C     89.46000000    80.30000000    37.83000000
   C     90.77000000    79.53000000    37.97000000
   C     90.87000000    78.75000000    39.27000000
   O     91.50000000    77.67000000    39.31000000
   O     90.21000000    79.03000000    40.30000000
   H     88.73000000    78.94000000    35.68000000
   H     88.26000000    78.69000000    38.55000000
   H     89.42000000    81.02000000    38.64000000
   H     89.52000000    80.95000000    36.96000000
   H     91.66000000    80.16000000    37.94000000
   H     90.80000000    78.83000000    37.13000000
   N     86.38000000    80.42000000    36.63000000
   C     85.00000000    80.88000000    36.54000000
   H     84.37600000    80.29000000    37.21200000
   H     84.94700000    81.93100000    36.82500000
   H     84.64300000    80.76200000    35.51700000
   H     86.74000000    80.03000000    35.77000000
  Ca     91.41000000    77.32000000    41.91000000
   O     91.19000000    74.96000000    43.47000000
   H     91.91000000    74.75000000    44.06000000
   H     90.57000000    74.24000000    43.59000000
   O     89.25000000    76.01000000    40.95000000
   H     88.51000000    75.97000000    41.56000000
   H     88.90000000    75.66000000    40.13000000
   O     89.02000000    77.84000000    43.62000000
   H     89.44000000    77.65000000    44.45000000
   H     88.19000000    78.24000000    43.85000000

Ca 1.00



