%chk=loop3.holoCaM-CaMKII.run43.water2.chk
%nprocshared=20
%mem=10GB
%nosave
#b3lyp/svp scf=(tight,noincore,xqc) Test 
#IOP(5/87=12) Density=Current Pop=(MK,readradii) iop(6/33=2) iop(6/42=6)

loop3.holoCaM-CaMKII.run43.water2 

   0  1 
   C      2.59200000    26.70000000    10.47200000
   C      3.80200000    26.72000000    11.40200000
   O      4.93200000    26.62000000    10.93200000
   H      1.79700000    27.31100000    10.89800000
   H      2.87500000    27.10000000     9.49800000
   H      2.23900000    25.67500000    10.35600000
   N      3.59200000    26.67000000    12.72200000
   C      4.63200000    26.77000000    13.72200000
   C      5.18200000    25.37000000    13.96200000
   O      4.75200000    24.61000000    14.83200000
   C      3.99200000    27.33000000    14.99200000
   C      4.91200000    27.45000000    16.20200000
   O      6.13200000    27.21000000    16.08200000
   O      4.37200000    27.73000000    17.29200000
   H      2.63200000    26.67000000    13.02200000
   H      5.44200000    27.45000000    13.46200000
   H      3.18200000    26.63000000    15.21200000
   H      3.55200000    28.29000000    14.72200000
   N      6.18200000    24.96000000    13.18200000
   C      6.77200000    23.64000000    13.18200000
   C      7.34200000    23.14000000    14.50200000
   O      7.42200000    21.93000000    14.74200000
   C      7.80200000    23.61000000    12.05200000
   C      7.16200000    23.77000000    10.68200000
   C      6.16200000    22.66000000    10.40200000
   C      5.85200000    22.67000000     8.91200000
   N      4.92200000    21.59000000     8.54200000
   H      6.40200000    25.60000000    12.43200000
   H      6.03200000    22.90000000    12.89200000
   H      8.37200000    22.68000000    12.07200000
   H      8.49200000    24.42000000    12.27200000
   H      7.95200000    23.73000000     9.93200000
   H      6.69200000    24.74000000    10.52200000
   H      5.22200000    22.77000000    10.95200000
   H      6.52200000    21.69000000    10.76200000
   H      6.71200000    22.70000000     8.24200000
   H      5.35200000    23.61000000     8.67200000
   H      4.51200000    21.76000000     7.63200000
   H      5.51200000    20.78000000     8.42200000
   H      4.22200000    21.49000000     9.26200000
   N      7.90200000    24.01000000    15.33200000
   C      8.38200000    23.62000000    16.65200000
   C      7.35200000    23.83000000    17.75200000
   O      7.75200000    23.56000000    18.88200000
   C      9.76200000    24.17000000    17.00200000
   C      9.85200000    25.68000000    17.18200000
   O     10.95200000    26.11000000    17.58200000
   O      8.87200000    26.43000000    16.99200000
   H      7.82200000    25.00000000    15.14200000
   H      8.54200000    22.54000000    16.60200000
   H     10.49200000    23.86000000    16.25200000
   H     10.20200000    23.65000000    17.85200000
   N      6.17200000    24.42000000    17.54200000
   C      5.13200000    24.64000000    18.52200000
   C      5.43200000    25.66000000    19.61200000
   O      4.85200000    25.49000000    20.68200000
   H      5.90200000    24.70000000    16.61200000
   H      4.94200000    23.70000000    19.05200000
   H      4.22200000    24.83000000    17.94200000
   N      6.24200000    26.68000000    19.34200000
   C      6.71200000    27.67000000    20.29200000
   C      5.82200000    28.88000000    20.53200000
   O      6.13200000    29.87000000    21.18200000
   C      8.19200000    28.02000000    20.15200000
   C      8.54200000    29.17000000    19.21200000
   N      9.40200000    30.06000000    19.70200000
   O      8.06200000    29.37000000    18.10200000
   H      6.57200000    26.77000000    18.39200000
   H      6.78200000    27.13000000    21.24200000
   H      8.80200000    27.19000000    19.80200000
   H      8.46200000    28.29000000    21.17200000
   H      9.94200000    29.86000000    20.53200000
   H      9.79200000    30.72000000    19.04200000
   N      4.66200000    28.80000000    19.87200000
   C      3.72200000    29.91000000    19.92200000
   C      4.06200000    30.95000000    18.86200000
   O      3.46200000    32.02000000    18.95200000
   H      4.38200000    28.03000000    19.29200000
   H      3.63200000    30.32000000    20.92200000
   H      2.82200000    29.46000000    19.49200000
   N      4.97200000    30.74000000    17.91200000
   C      5.38200000    31.77000000    16.98200000
   C      5.90200000    31.25000000    15.66200000
   O      6.54200000    30.20000000    15.61200000
   C      6.49200000    32.69000000    17.50200000
   C      6.33200000    33.33000000    18.86200000
   C      5.69200000    34.57000000    18.92200000
   C      7.01200000    32.88000000    20.00200000
   C      5.75200000    35.42000000    20.03200000
   C      6.97200000    33.65000000    21.17200000
   C      6.40200000    34.94000000    21.18200000
   O      6.47200000    35.70000000    22.31200000
   H      5.32200000    29.80000000    17.79200000
   H      4.48200000    32.36000000    16.78200000
   H      6.73200000    33.38000000    16.70200000
   H      7.42200000    32.13000000    17.59200000
   H      5.08200000    34.88000000    18.09200000
   H      7.57200000    31.96000000    20.03200000
   H      5.21200000    36.35000000    20.17200000
   H      7.47200000    33.33000000    22.07200000
   H      5.86200000    36.44000000    22.25200000
   N      5.63200000    31.90000000    14.52200000
   C      6.09200000    31.54000000    13.19200000
   C      7.32200000    32.32000000    12.75200000
   O      7.39200000    33.51000000    13.04200000
   C      4.96200000    31.55000000    12.17200000
   C      3.85200000    30.58000000    12.57200000
   C      5.42200000    30.97000000    10.83200000
   C      2.48200000    31.06000000    12.10200000
   H      5.04200000    32.71000000    14.42200000
   H      6.37200000    30.49000000    13.29200000
   H      4.65200000    32.59000000    12.07200000
   H      3.80200000    30.49000000    13.65200000
   H      4.11200000    29.58000000    12.23200000
   H      4.63200000    30.65000000    10.14200000
   H      6.09200000    31.70000000    10.39200000
   H      6.07200000    30.11000000    10.98200000
   H      2.36200000    32.08000000    12.47200000
   H      2.51200000    31.02000000    11.02200000
   H      1.66200000    30.44000000    12.47200000
   N      8.24200000    31.76000000    11.96200000
   C      9.35200000    32.45000000    11.36200000
   C      9.47200000    32.26000000     9.85200000
   O      8.74200000    31.50000000     9.21200000
   C     10.61200000    31.89000000    12.02200000
   O     10.95200000    30.63000000    11.50200000
   H      8.27200000    30.77000000    11.75200000
   H      9.32200000    33.54000000    11.46200000
   H     10.55200000    31.87000000    13.11200000
   H     11.48200000    32.48000000    11.74200000
   H     11.66200000    30.24000000    12.02200000
   N     10.38200000    32.99000000     9.21200000
   C     10.35200000    32.91000000     7.76200000
   C     10.77200000    31.59000000     7.14200000
   O     10.29200000    31.24000000     6.06200000
   C     11.40200000    33.91000000     7.28200000
   H     10.81200000    33.77000000     9.68200000
   H      9.39200000    33.28000000     7.40200000
   H     10.93200000    34.88000000     7.12200000
   H     12.13200000    34.00000000     8.07200000
   H     11.78200000    33.65000000     6.29200000
   N     11.58200000    30.79000000     7.83200000
   C     11.89200000    29.41000000     7.55200000
   C     10.66200000    28.51000000     7.61200000
   O     10.53200000    27.53000000     6.89200000
   C     12.97200000    28.98000000     8.54200000
   H     12.07200000    31.21000000     8.62200000
   H     12.25200000    29.39000000     6.52200000
   H     13.55200000    28.19000000     8.05200000
   H     13.68200000    29.81000000     8.53200000
   H     12.61200000    28.68000000     9.52200000
   N      9.79200000    28.84000000     8.56200000
   C      8.63200000    28.04000000     8.91200000
   C      7.48200000    28.35000000     7.96200000
   O      6.82200000    27.47000000     7.42200000
   C      8.14200000    28.11000000    10.35200000
   C      9.13200000    27.54000000    11.37200000
   C      8.65200000    27.79000000    12.79200000
   O      8.65200000    26.85000000    13.62200000
   O      8.26200000    28.89000000    13.24200000
   H     10.03200000    29.54000000     9.25200000
   H      8.81200000    26.98000000     8.71200000
   H      7.19200000    27.60000000    10.52200000
   H      8.16200000    29.19000000    10.48200000
   H     10.11200000    28.01000000    11.29200000
   H      9.36200000    26.49000000    11.21200000
   N      7.21200000    29.63000000     7.73200000
   C      6.34200000    30.16000000     6.70200000
   H      5.45400000    30.59200000     7.16400000
   H      6.87000000    30.93100000     6.14000000
   H      6.04600000    29.35700000     6.02700000
   H      7.84200000    30.28000000     8.19200000
  Ca      8.39000000    28.49000000    15.72000000
   O      9.46000000    31.22000000    15.47000000
   H     10.37000000    31.17000000    15.20000000
   H      9.36000000    32.11000000    15.80000000
   O     10.93000000    28.23000000    15.38000000
   H     11.35000000    29.05000000    15.62000000
   H     11.58000000    27.56000000    15.60000000

Ca 1.00



