%chk=loop1.apoCaM-CA-Ng.Init293.run95.water5.chk
%nprocshared=20
%mem=10GB
%nosave
#b3lyp/svp scf=(tight,noincore,xqc) Test 
#IOP(5/87=12) Density=Current Pop=(MK,readradii) iop(6/33=2) iop(6/42=6)

loop1.apoCaM-CA-Ng.Init293.run95.water5 

   0  1 
   C     77.47000000   113.49000000    30.81000000
   C     77.22000000   114.99000000    30.72000000
   O     76.77000000   115.50000000    29.70000000
   H     78.39900000   113.30900000    31.35100000
   H     76.64400000   113.01400000    31.33900000
   H     77.54800000   113.07300000    29.80600000
   N     77.48000000   115.78000000    31.76000000
   C     77.29000000   117.22000000    31.76000000
   C     78.25000000   118.03000000    30.91000000
   O     77.91000000   119.18000000    30.64000000
   C     77.22000000   117.62000000    33.23000000
   C     78.51000000   117.36000000    34.01000000
   O     78.99000000   116.22000000    34.12000000
   O     79.02000000   118.34000000    34.61000000
   H     77.98000000   115.43000000    32.56000000
   H     76.34000000   117.29000000    31.23000000
   H     76.41000000   117.00000000    33.61000000
   H     76.85000000   118.63000000    33.43000000
   N     79.35000000   117.46000000    30.40000000
   C     80.47000000   118.27000000    29.96000000
   C     80.28000000   118.76000000    28.53000000
   O     79.88000000   117.98000000    27.66000000
   C     81.72000000   117.44000000    30.19000000
   C     82.01000000   116.93000000    31.60000000
   C     81.91000000   118.04000000    32.63000000
   C     82.58000000   117.63000000    33.94000000
   N     81.78000000   116.63000000    34.67000000
   H     79.45000000   116.48000000    30.61000000
   H     80.59000000   119.16000000    30.57000000
   H     82.58000000   117.99000000    29.80000000
   H     81.62000000   116.56000000    29.55000000
   H     83.07000000   116.66000000    31.62000000
   H     81.30000000   116.13000000    31.81000000
   H     80.88000000   118.32000000    32.86000000
   H     82.42000000   118.94000000    32.27000000
   H     82.56000000   118.53000000    34.56000000
   H     83.62000000   117.34000000    33.77000000
   H     80.84000000   116.97000000    34.78000000
   H     81.62000000   115.77000000    34.18000000
   H     82.15000000   116.48000000    35.60000000
   N     80.58000000   120.01000000    28.18000000
   C     80.94000000   121.14000000    29.01000000
   C     80.52000000   122.41000000    28.28000000
   O     81.28000000   123.36000000    28.09000000
   C     82.44000000   121.16000000    29.32000000
   C     83.46000000   120.83000000    28.25000000
   O     83.14000000   120.74000000    27.05000000
   O     84.58000000   120.47000000    28.68000000
   H     80.56000000   120.12000000    27.18000000
   H     80.34000000   121.13000000    29.91000000
   H     82.54000000   120.36000000    30.05000000
   H     82.75000000   122.10000000    29.78000000
   N     79.32000000   122.56000000    27.71000000
   C     78.12000000   121.81000000    27.99000000
   C     76.88000000   122.18000000    27.17000000
   O     76.81000000   123.20000000    26.49000000
   H     79.25000000   123.31000000    27.04000000
   H     77.89000000   121.84000000    29.05000000
   H     78.33000000   120.77000000    27.75000000
   N     75.85000000   121.33000000    27.14000000
   C     75.85000000   119.89000000    27.29000000
   C     74.63000000   119.36000000    28.04000000
   O     73.47000000   119.72000000    27.89000000
   C     75.97000000   119.19000000    25.93000000
   C     77.23000000   119.62000000    25.20000000
   O     78.26000000   119.01000000    25.56000000
   O     77.20000000   120.41000000    24.23000000
   H     74.97000000   121.75000000    26.89000000
   H     76.72000000   119.62000000    27.87000000
   H     75.11000000   119.40000000    25.30000000
   H     75.96000000   118.13000000    26.16000000
   N     74.88000000   118.48000000    29.01000000
   C     73.93000000   117.65000000    29.73000000
   C     73.21000000   116.63000000    28.87000000
   O     72.40000000   115.84000000    29.35000000
   H     75.83000000   118.39000000    29.33000000
   H     73.28000000   118.35000000    30.26000000
   H     74.55000000   117.14000000    30.46000000
   N     73.59000000   116.51000000    27.59000000
   C     73.00000000   115.62000000    26.61000000
   C     74.11000000   114.72000000    26.11000000
   O     75.22000000   115.21000000    25.91000000
   C     72.24000000   116.38000000    25.53000000
   C     73.03000000   117.29000000    24.60000000
   O     71.20000000   117.07000000    26.18000000
   H     74.34000000   117.09000000    27.25000000
   H     72.17000000   115.04000000    27.02000000
   H     71.72000000   115.66000000    24.89000000
   H     70.52000000   117.17000000    25.52000000
   H     72.41000000   117.42000000    23.71000000
   H     73.24000000   118.24000000    25.10000000
   H     73.93000000   116.87000000    24.16000000
   N     73.85000000   113.41000000    25.98000000
   C     74.73000000   112.32000000    25.63000000
   C     74.30000000   111.76000000    24.28000000
   O     73.39000000   110.94000000    24.22000000
   C     74.84000000   111.25000000    26.72000000
   C     75.73000000   110.08000000    26.34000000
   C     73.53000000   110.84000000    27.39000000
   C     77.06000000   110.56000000    25.75000000
   H     72.88000000   113.16000000    26.11000000
   H     75.69000000   112.79000000    25.42000000
   H     75.41000000   111.77000000    27.49000000
   H     75.27000000   109.55000000    25.51000000
   H     75.87000000   109.39000000    27.17000000
   H     73.00000000   111.70000000    27.80000000
   H     72.95000000   110.31000000    26.63000000
   H     73.77000000   110.21000000    28.25000000
   H     76.83000000   110.75000000    24.70000000
   H     77.45000000   111.51000000    26.11000000
   H     77.85000000   109.82000000    25.87000000
   N     74.95000000   112.12000000    23.17000000
   C     74.63000000   111.59000000    21.86000000
   C     75.86000000   110.99000000    21.20000000
   O     75.90000000   110.69000000    20.01000000
   C     73.97000000   112.62000000    20.95000000
   C     74.66000000   113.98000000    20.99000000
   O     72.72000000   112.96000000    21.51000000
   H     75.61000000   112.88000000    23.16000000
   H     73.90000000   110.78000000    21.87000000
   H     73.85000000   112.30000000    19.92000000
   H     72.14000000   113.11000000    20.76000000
   H     75.69000000   113.92000000    20.63000000
   H     74.17000000   114.57000000    20.21000000
   H     74.66000000   114.50000000    21.95000000
   N     76.99000000   110.82000000    21.91000000
   C     78.25000000   110.32000000    21.42000000
   C     78.86000000   111.22000000    20.35000000
   O     78.25000000   112.19000000    19.92000000
   C     78.14000000   108.86000000    21.00000000
   C     77.49000000   107.90000000    22.00000000
   O     79.41000000   108.30000000    20.78000000
   H     77.07000000   111.17000000    22.85000000
   H     78.88000000   110.37000000    22.30000000
   H     77.56000000   108.78000000    20.08000000
   H     79.35000000   107.50000000    20.26000000
   H     76.42000000   108.10000000    22.06000000
   H     77.62000000   106.87000000    21.68000000
   H     77.85000000   107.95000000    23.03000000
   N     80.09000000   110.96000000    19.90000000
   C     80.77000000   111.51000000    18.74000000
   C     82.07000000   112.29000000    18.93000000
   O     82.53000000   112.87000000    17.95000000
   C     80.93000000   110.38000000    17.73000000
   C     79.62000000   109.87000000    17.14000000
   C     79.65000000   108.65000000    16.23000000
   C     78.26000000   108.10000000    15.90000000
   N     78.30000000   106.67000000    15.57000000
   H     80.46000000   110.06000000    20.18000000
   H     80.07000000   112.21000000    18.28000000
   H     81.51000000   109.57000000    18.18000000
   H     81.50000000   110.78000000    16.89000000
   H     79.19000000   110.69000000    16.57000000
   H     78.92000000   109.60000000    17.94000000
   H     80.27000000   107.89000000    16.70000000
   H     80.15000000   108.85000000    15.29000000
   H     77.87000000   108.61000000    15.02000000
   H     77.65000000   108.17000000    16.80000000
   H     78.45000000   105.91000000    16.22000000
   H     77.48000000   106.39000000    15.03000000
   H     78.99000000   106.46000000    14.86000000
   N     82.74000000   112.31000000    20.08000000
   C     82.61000000   111.77000000    21.42000000
   C     82.47000000   110.26000000    21.49000000
   O     81.78000000   109.71000000    22.36000000
   C     81.66000000   112.55000000    22.32000000
   C     82.04000000   114.02000000    22.44000000
   C     81.27000000   114.82000000    23.48000000
   O     81.75000000   115.94000000    23.77000000
   O     80.12000000   114.55000000    23.91000000
   H     83.55000000   112.90000000    19.98000000
   H     83.58000000   112.01000000    21.85000000
   H     81.84000000   112.11000000    23.30000000
   H     80.61000000   112.44000000    22.04000000
   H     81.86000000   114.52000000    21.49000000
   H     83.09000000   114.16000000    22.68000000
   N     82.98000000   109.56000000    20.47000000
   C     83.06000000   108.12000000    20.43000000
   H     83.98100000   107.79400000    20.91300000
   H     82.20500000   107.69300000    20.95400000
   H     83.05600000   107.78400000    19.39300000
   H     83.58000000   110.06000000    19.83000000
  Ca     79.60000000   116.72400000    25.29000000
   O     77.86000000   115.84400000    27.25000000
   H     77.60000000   115.81400000    28.17000000
   H     77.24000000   115.25400000    26.81000000
   O     80.80000000   115.12400000    26.97000000
   H     81.46000000   114.47400000    26.74000000
   H     80.79000000   115.13400000    27.92000000
   O     79.27000000   117.87400000    22.93000000
   H     78.75000000   118.57400000    22.51000000
   H     79.49000000   117.28400000    22.22000000
   O     77.22000000   116.20400000    24.11000000
   H     76.47000000   115.91400000    24.63000000
   H     76.83000000   116.62400000    23.35000000
   O     81.15000000   118.95400000    25.08000000
   H     80.72000000   119.62400000    24.54000000
   H     82.07000000   119.21400000    25.08000000

Ca 1.00



