%chk=loop3.apoCaM-CA-Ng.Init293.run66.water5.chk
%nprocshared=20
%mem=10GB
%nosave
#b3lyp/svp scf=(tight,noincore,xqc) Test 
#IOP(5/87=12) Density=Current Pop=(MK,readradii) iop(6/33=2) iop(6/42=6)

loop3.apoCaM-CA-Ng.Init293.run66.water5 

   0  1 
   C     63.21000000    58.16000000    37.63000000
   C     62.91000000    56.77000000    37.08000000
   O     63.79000000    55.92000000    37.08000000
   H     64.10000000    58.55900000    37.14300000
   H     62.36400000    58.81900000    37.43500000
   H     63.38200000    58.09700000    38.70500000
   N     61.70000000    56.61000000    36.54000000
   C     61.10000000    55.34000000    36.15000000
   C     59.70000000    55.14000000    36.70000000
   O     59.08000000    56.18000000    36.92000000
   C     61.12000000    55.27000000    34.63000000
   C     60.92000000    53.92000000    33.96000000
   O     60.31000000    53.80000000    32.88000000
   O     61.37000000    52.94000000    34.60000000
   H     61.05000000    57.37000000    36.67000000
   H     61.69000000    54.48000000    36.47000000
   H     62.13000000    55.52000000    34.28000000
   H     60.48000000    56.03000000    34.18000000
   N     59.18000000    53.94000000    36.96000000
   C     57.83000000    53.51000000    37.25000000
   C     56.78000000    53.82000000    36.19000000
   O     57.04000000    54.57000000    35.26000000
   C     57.48000000    53.96000000    38.67000000
   C     56.69000000    52.91000000    39.45000000
   C     56.22000000    53.45000000    40.80000000
   C     55.12000000    54.50000000    40.72000000
   N     53.93000000    53.94000000    40.07000000
   H     59.84000000    53.17000000    36.95000000
   H     57.87000000    52.42000000    37.24000000
   H     56.83000000    54.83000000    38.56000000
   H     58.35000000    54.24000000    39.27000000
   H     57.32000000    52.02000000    39.52000000
   H     55.85000000    52.57000000    38.85000000
   H     56.98000000    53.91000000    41.43000000
   H     55.87000000    52.65000000    41.45000000
   H     55.37000000    55.36000000    40.09000000
   H     54.89000000    54.76000000    41.76000000
   H     53.48000000    53.19000000    40.57000000
   H     53.23000000    54.66000000    39.96000000
   H     53.92000000    53.55000000    39.14000000
   N     55.58000000    53.28000000    36.38000000
   C     54.36000000    53.61000000    35.67000000
   C     53.74000000    54.82000000    36.36000000
   O     53.93000000    55.06000000    37.55000000
   C     53.32000000    52.49000000    35.61000000
   C     52.97000000    51.82000000    36.93000000
   O     53.29000000    52.35000000    38.01000000
   O     52.32000000    50.75000000    36.93000000
   H     55.51000000    52.50000000    37.02000000
   H     54.64000000    53.88000000    34.65000000
   H     53.61000000    51.72000000    34.88000000
   H     52.43000000    52.90000000    35.14000000
   N     53.22000000    55.74000000    35.56000000
   C     52.79000000    57.05000000    36.01000000
   C     51.89000000    57.69000000    34.96000000
   O     52.09000000    58.88000000    34.70000000
   H     53.09000000    55.56000000    34.57000000
   H     53.70000000    57.65000000    36.10000000
   H     52.22000000    56.87000000    36.92000000
   N     50.89000000    57.04000000    34.36000000
   C     50.07000000    57.65000000    33.33000000
   C     49.02000000    58.56000000    33.94000000
   O     48.38000000    58.23000000    34.94000000
   C     49.32000000    56.56000000    32.57000000
   C     48.54000000    57.03000000    31.35000000
   N     47.22000000    56.85000000    31.43000000
   O     49.06000000    57.64000000    30.42000000
   H     50.67000000    56.10000000    34.65000000
   H     50.72000000    58.22000000    32.67000000
   H     48.75000000    56.01000000    33.31000000
   H     50.03000000    55.87000000    32.12000000
   H     46.89000000    56.38000000    32.26000000
   H     46.61000000    56.96000000    30.63000000
   N     48.88000000    59.76000000    33.38000000
   C     48.02000000    60.82000000    33.85000000
   C     48.48000000    61.39000000    35.18000000
   O     49.59000000    61.20000000    35.69000000
   H     49.37000000    60.00000000    32.52000000
   H     47.00000000    60.44000000    33.90000000
   H     48.02000000    61.69000000    33.18000000
   N     47.52000000    62.12000000    35.75000000
   C     47.51000000    62.93000000    36.95000000
   C     48.01000000    62.36000000    38.28000000
   O     48.10000000    63.09000000    39.26000000
   C     48.06000000    64.33000000    36.70000000
   C     49.50000000    64.45000000    36.27000000
   C     50.50000000    64.26000000    37.23000000
   C     49.74000000    64.65000000    34.90000000
   C     51.82000000    64.43000000    36.79000000
   C     51.06000000    64.97000000    34.55000000
   C     52.12000000    64.78000000    35.46000000
   O     53.42000000    65.01000000    35.10000000
   H     46.77000000    62.27000000    35.08000000
   H     46.45000000    63.11000000    37.11000000
   H     47.84000000    64.91000000    37.59000000
   H     47.37000000    64.80000000    36.00000000
   H     50.24000000    64.09000000    38.26000000
   H     48.92000000    64.70000000    34.20000000
   H     52.59000000    64.43000000    37.55000000
   H     51.33000000    65.23000000    33.54000000
   H     53.43000000    65.37000000    34.21000000
   N     48.27000000    61.05000000    38.33000000
   C     48.87000000    60.33000000    39.43000000
   C     47.97000000    60.20000000    40.65000000
   O     47.89000000    59.12000000    41.22000000
   C     50.26000000    60.84000000    39.78000000
   C     51.22000000    61.19000000    38.65000000
   C     50.94000000    60.03000000    40.88000000
   C     51.90000000    60.01000000    37.96000000
   H     48.33000000    60.61000000    37.42000000
   H     49.07000000    59.31000000    39.09000000
   H     50.17000000    61.83000000    40.23000000
   H     52.05000000    61.80000000    39.02000000
   H     50.71000000    61.76000000    37.88000000
   H     51.86000000    60.53000000    41.20000000
   H     50.38000000    59.72000000    41.76000000
   H     51.27000000    59.10000000    40.41000000
   H     52.61000000    59.50000000    38.60000000
   H     51.12000000    59.36000000    37.56000000
   H     52.44000000    60.39000000    37.09000000
   N     47.23000000    61.22000000    41.09000000
   C     46.19000000    61.16000000    42.10000000
   C     46.72000000    60.73000000    43.46000000
   O     46.00000000    60.18000000    44.29000000
   C     45.56000000    62.54000000    42.22000000
   O     44.92000000    62.96000000    41.04000000
   H     47.25000000    62.06000000    40.53000000
   H     45.40000000    60.47000000    41.79000000
   H     46.35000000    63.27000000    42.42000000
   H     44.86000000    62.48000000    43.06000000
   H     44.33000000    63.66000000    41.31000000
   N     48.04000000    60.80000000    43.67000000
   C     48.75000000    60.41000000    44.87000000
   C     48.90000000    58.92000000    45.17000000
   O     49.06000000    58.54000000    46.32000000
   C     48.28000000    61.27000000    46.04000000
   H     48.57000000    61.37000000    43.03000000
   H     49.78000000    60.73000000    44.76000000
   H     49.04000000    61.21000000    46.83000000
   H     48.23000000    62.32000000    45.77000000
   H     47.30000000    60.95000000    46.37000000
   N     48.82000000    58.10000000    44.12000000
   C     49.04000000    56.67000000    44.19000000
   C     50.52000000    56.35000000    44.14000000
   O     51.34000000    56.98000000    43.47000000
   C     48.27000000    56.00000000    43.05000000
   H     48.57000000    58.52000000    43.23000000
   H     48.71000000    56.30000000    45.16000000
   H     48.68000000    56.23000000    42.07000000
   H     48.44000000    54.93000000    43.13000000
   H     47.19000000    56.15000000    43.12000000
   N     50.84000000    55.20000000    44.74000000
   C     52.14000000    54.57000000    44.61000000
   C     53.35000000    55.41000000    44.98000000
   O     54.46000000    54.98000000    44.68000000
   C     52.27000000    53.78000000    43.31000000
   C     51.06000000    52.89000000    43.05000000
   C     51.23000000    52.03000000    41.81000000
   O     50.58000000    50.96000000    41.75000000
   O     52.10000000    52.27000000    40.95000000
   H     50.04000000    54.60000000    44.91000000
   H     52.09000000    53.82000000    45.40000000
   H     53.14000000    53.14000000    43.24000000
   H     52.36000000    54.48000000    42.47000000
   H     50.24000000    53.58000000    42.85000000
   H     50.82000000    52.23000000    43.88000000
   N     53.17000000    56.59000000    45.58000000
   C     54.17000000    57.62000000    45.81000000
   H     55.05700000    57.40400000    45.21500000
   H     53.76600000    58.59000000    45.52000000
   H     54.43800000    57.63800000    46.86600000
   H     52.20000000    56.84000000    45.73000000
  Ca     51.98000000    50.19000000    39.40000000
   O     54.52000000    50.65000000    40.41000000
   H     55.42000000    50.58000000    40.73000000
   H     54.01000000    50.90000000    41.18000000
   O     53.88000000    48.50000000    38.36000000
   H     53.59000000    47.99000000    37.61000000
   H     54.17000000    47.85000000    39.00000000
   O     49.77000000    51.40000000    38.44000000
   H     48.96000000    51.44000000    38.95000000
   H     49.55000000    51.85000000    37.62000000
   O     50.65000000    48.15000000    38.46000000
   H     50.32000000    47.76000000    37.65000000
   H     50.70000000    47.42000000    39.08000000
   O     52.55000000    48.13000000    40.97000000
   H     52.37000000    47.99000000    41.90000000
   H     53.10000000    47.39000000    40.72000000

Ca 1.00



