%chk=loop1.apoCaM-CA-Ng.Init293.run20.water4.chk
%nprocshared=20
%mem=10GB
%nosave
#b3lyp/svp scf=(tight,noincore,xqc) Test 
#IOP(5/87=12) Density=Current Pop=(MK,readradii) iop(6/33=2) iop(6/42=6)

loop1.apoCaM-CA-Ng.Init293.run20.water4 

   0  1 
   C     44.42000000    -5.85000000    32.91000000
   C     44.09000000    -7.31000000    33.15000000
   O     44.12000000    -8.15000000    32.26000000
   H     45.38800000    -5.77400000    32.41400000
   H     43.65200000    -5.40200000    32.27900000
   H     44.45900000    -5.32400000    33.86400000
   N     43.71000000    -7.69000000    34.38000000
   C     43.35000000    -9.00000000    34.87000000
   C     41.84000000    -9.18000000    34.96000000
   O     41.37000000   -10.24000000    35.38000000
   C     44.15000000    -9.31000000    36.13000000
   C     43.75000000    -8.30000000    37.20000000
   O     44.32000000    -7.19000000    37.28000000
   O     42.85000000    -8.59000000    38.02000000
   H     43.56000000    -6.94000000    35.04000000
   H     43.66000000    -9.76000000    34.16000000
   H     45.23000000    -9.25000000    35.98000000
   H     43.91000000   -10.31000000    36.51000000
   N     41.03000000    -8.19000000    34.60000000
   C     39.62000000    -8.01000000    34.87000000
   C     38.71000000    -7.71000000    33.69000000
   O     37.95000000    -6.74000000    33.72000000
   C     39.50000000    -6.87000000    35.89000000
   C     40.51000000    -6.89000000    37.04000000
   C     40.34000000    -5.77000000    38.07000000
   C     41.03000000    -6.03000000    39.40000000
   N     42.48000000    -6.09000000    39.13000000
   H     41.47000000    -7.40000000    34.14000000
   H     39.23000000    -8.87000000    35.41000000
   H     38.48000000    -6.82000000    36.27000000
   H     39.69000000    -5.96000000    35.33000000
   H     41.53000000    -6.91000000    36.65000000
   H     40.36000000    -7.79000000    37.63000000
   H     39.27000000    -5.70000000    38.30000000
   H     40.67000000    -4.85000000    37.59000000
   H     40.74000000    -7.01000000    39.78000000
   H     40.86000000    -5.20000000    40.08000000
   H     42.79000000    -5.35000000    38.51000000
   H     43.02000000    -5.90000000    39.96000000
   H     42.81000000    -6.90000000    38.63000000
   N     38.75000000    -8.44000000    32.57000000
   C     38.98000000    -9.84000000    32.31000000
   C     38.46000000   -10.87000000    33.32000000
   O     38.43000000   -10.64000000    34.52000000
   C     40.41000000    -9.98000000    31.81000000
   C     40.55000000    -9.73000000    30.32000000
   O     41.63000000   -10.09000000    29.81000000
   O     39.59000000    -9.37000000    29.60000000
   H     38.32000000    -8.02000000    31.76000000
   H     38.30000000   -10.04000000    31.48000000
   H     40.71000000   -11.00000000    32.04000000
   H     41.08000000    -9.31000000    32.36000000
   N     38.10000000   -12.09000000    32.91000000
   C     38.21000000   -12.76000000    31.63000000
   C     38.20000000   -14.28000000    31.77000000
   O     37.25000000   -14.74000000    32.39000000
   H     37.58000000   -12.69000000    33.53000000
   H     39.10000000   -12.49000000    31.06000000
   H     37.36000000   -12.43000000    31.03000000
   N     39.21000000   -15.04000000    31.35000000
   C     40.31000000   -14.65000000    30.49000000
   C     41.44000000   -13.88000000    31.16000000
   O     42.16000000   -13.19000000    30.45000000
   C     40.91000000   -15.91000000    29.87000000
   C     41.37000000   -16.98000000    30.85000000
   O     42.55000000   -16.92000000    31.26000000
   O     40.57000000   -17.91000000    31.08000000
   H     39.10000000   -16.02000000    31.56000000
   H     39.81000000   -14.07000000    29.71000000
   H     41.70000000   -15.55000000    29.21000000
   H     40.16000000   -16.39000000    29.24000000
   N     41.53000000   -13.93000000    32.49000000
   C     42.45000000   -13.19000000    33.33000000
   C     43.95000000   -13.40000000    33.17000000
   O     44.77000000   -12.64000000    33.68000000
   H     40.85000000   -14.49000000    32.99000000
   H     42.10000000   -13.20000000    34.36000000
   H     42.35000000   -12.19000000    32.92000000
   N     44.34000000   -14.42000000    32.40000000
   C     45.73000000   -14.57000000    32.00000000
   C     46.21000000   -13.34000000    31.24000000
   O     45.56000000   -12.83000000    30.34000000
   C     45.88000000   -15.82000000    31.13000000
   C     47.29000000   -15.92000000    30.55000000
   O     44.97000000   -15.84000000    30.06000000
   H     43.73000000   -15.20000000    32.19000000
   H     46.29000000   -14.77000000    32.92000000
   H     45.76000000   -16.72000000    31.74000000
   H     44.14000000   -16.08000000    30.47000000
   H     47.41000000   -15.07000000    29.88000000
   H     48.11000000   -15.88000000    31.26000000
   H     47.44000000   -16.84000000    29.99000000
   N     47.40000000   -12.84000000    31.59000000
   C     48.06000000   -11.69000000    31.01000000
   C     49.48000000   -12.17000000    30.77000000
   O     50.34000000   -12.06000000    31.64000000
   C     47.92000000   -10.44000000    31.88000000
   C     48.47000000    -9.20000000    31.18000000
   C     48.36000000   -10.62000000    33.33000000
   C     48.09000000    -7.94000000    31.94000000
   H     47.88000000   -13.29000000    32.36000000
   H     47.63000000   -11.50000000    30.03000000
   H     46.84000000   -10.30000000    31.89000000
   H     47.97000000    -9.16000000    30.21000000
   H     49.56000000    -9.29000000    31.11000000
   H     47.63000000   -10.27000000    34.05000000
   H     48.70000000   -11.61000000    33.65000000
   H     49.30000000   -10.08000000    33.46000000
   H     48.55000000    -7.05000000    31.51000000
   H     47.00000000    -7.87000000    31.92000000
   H     48.44000000    -7.94000000    32.97000000
   N     49.61000000   -12.89000000    29.65000000
   C     50.92000000   -13.38000000    29.26000000
   C     51.30000000   -12.83000000    27.89000000
   O     52.28000000   -13.25000000    27.28000000
   C     50.91000000   -14.91000000    29.32000000
   C     50.05000000   -15.53000000    28.23000000
   O     50.57000000   -15.21000000    30.65000000
   H     48.88000000   -12.95000000    28.96000000
   H     51.72000000   -13.11000000    29.95000000
   H     51.96000000   -15.18000000    29.20000000
   H     51.07000000   -14.53000000    31.12000000
   H     49.06000000   -15.07000000    28.28000000
   H     50.45000000   -15.42000000    27.22000000
   H     50.02000000   -16.60000000    28.47000000
   N     50.60000000   -11.83000000    27.35000000
   C     50.67000000   -11.41000000    25.96000000
   C     50.31000000   -12.50000000    24.96000000
   O     50.20000000   -13.68000000    25.28000000
   C     52.03000000   -10.75000000    25.72000000
   C     52.22000000    -9.53000000    26.61000000
   O     51.99000000   -10.18000000    24.43000000
   H     49.72000000   -11.58000000    27.78000000
   H     49.97000000   -10.58000000    25.89000000
   H     52.84000000   -11.48000000    25.76000000
   H     52.90000000    -9.92000000    24.26000000
   H     52.46000000    -9.81000000    27.63000000
   H     53.08000000    -8.95000000    26.29000000
   H     51.32000000    -8.92000000    26.70000000
   N     49.98000000   -12.10000000    23.74000000
   C     49.84000000   -13.08000000    22.68000000
   C     48.46000000   -13.56000000    22.27000000
   O     48.32000000   -14.65000000    21.71000000
   C     50.72000000   -12.83000000    21.46000000
   C     52.18000000   -13.20000000    21.70000000
   C     53.09000000   -12.60000000    20.63000000
   C     54.49000000   -12.87000000    21.17000000
   N     55.50000000   -12.34000000    20.24000000
   H     50.12000000   -11.15000000    23.40000000
   H     50.25000000   -14.04000000    23.02000000
   H     50.52000000   -11.83000000    21.10000000
   H     50.36000000   -13.45000000    20.64000000
   H     52.27000000   -14.29000000    21.67000000
   H     52.55000000   -12.85000000    22.66000000
   H     52.87000000   -11.54000000    20.62000000
   H     52.80000000   -12.99000000    19.65000000
   H     54.67000000   -13.94000000    21.32000000
   H     54.66000000   -12.37000000    22.12000000
   H     56.41000000   -12.39000000    20.68000000
   H     55.55000000   -12.85000000    19.37000000
   H     55.26000000   -11.43000000    19.87000000
   N     47.29000000   -12.92000000    22.38000000
   C     46.73000000   -11.71000000    22.95000000
   C     47.59000000   -10.55000000    22.47000000
   O     48.14000000    -9.83000000    23.30000000
   C     46.47000000   -11.81000000    24.45000000
   C     45.31000000   -10.90000000    24.84000000
   C     44.89000000   -10.93000000    26.30000000
   O     43.73000000   -10.51000000    26.52000000
   O     45.60000000   -11.25000000    27.28000000
   H     46.57000000   -13.56000000    22.11000000
   H     45.77000000   -11.58000000    22.46000000
   H     47.31000000   -11.55000000    25.10000000
   H     46.10000000   -12.80000000    24.71000000
   H     44.44000000   -11.28000000    24.29000000
   H     45.45000000    -9.89000000    24.45000000
   N     47.64000000   -10.41000000    21.14000000
   C     48.36000000    -9.34000000    20.49000000
   H     49.33900000    -9.70100000    20.17500000
   H     47.80000000    -9.00200000    19.61800000
   H     48.48500000    -8.51000000    21.18600000
   H     46.92000000   -10.88000000    20.61000000
  Ca     43.72000000   -11.40400000    29.04000000
   O     44.34000000    -8.67400000    29.30000000
   H     44.29000000    -7.86400000    28.79000000
   H     44.21000000    -8.39400000    30.21000000
   O     44.35000000   -13.96400000    28.02000000
   H     44.97000000   -14.34400000    27.40000000
   H     44.39000000   -14.55400000    28.78000000
   O     44.13000000   -10.77400000    31.47000000
   H     43.79000000    -9.92400000    31.75000000
   H     44.51000000   -11.15400000    32.26000000
   O     41.50000000   -12.13400000    27.89000000
   H     41.45000000   -13.05400000    27.65000000
   H     40.64000000   -11.92400000    28.25000000

Ca 1.00



