%chk=loop4.holoCaM.run56.water2.chk
%nprocshared=20
%mem=10GB
%nosave
#b3lyp/svp scf=(tight,noincore,xqc) Test 
#IOP(5/87=12) Density=Current Pop=(MK,readradii) iop(6/33=2) iop(6/42=6)

loop4.holoCaM.run56.water2 

   -3  1 
   C     83.09000000    56.90000000    90.01300000
   C     83.01000000    58.22000000    90.76300000
   O     82.55000000    59.18000000    90.15300000
   H     84.13000000    56.58100000    89.95000000
   H     82.51100000    56.14400000    90.54400000
   H     82.68800000    57.02800000    89.00800000
   N     83.40000000    58.25000000    92.04300000
   C     83.24000000    59.43000000    92.86300000
   C     84.19000000    60.51000000    92.36300000
   O     85.40000000    60.28000000    92.31300000
   C     83.39000000    59.09000000    94.34300000
   C     83.51000000    60.24000000    95.33300000
   O     84.03000000    60.03000000    96.45300000
   O     82.93000000    61.31000000    95.07300000
   H     83.83000000    57.44000000    92.47300000
   H     82.24000000    59.79000000    92.62300000
   H     84.23000000    58.43000000    94.60300000
   H     82.56000000    58.48000000    94.69300000
   N     83.70000000    61.72000000    92.09300000
   C     84.48000000    62.77000000    91.47300000
   C     85.04000000    63.77000000    92.46300000
   O     86.01000000    64.44000000    92.10300000
   C     83.72000000    63.47000000    90.34300000
   C     82.68000000    64.51000000    90.74300000
   C     83.31000000    62.42000000    89.31300000
   C     82.20000000    65.35000000    89.57300000
   H     82.70000000    61.83000000    92.18300000
   H     85.38000000    62.38000000    91.00300000
   H     84.45000000    64.08000000    89.81300000
   H     83.18000000    65.17000000    91.45300000
   H     81.84000000    64.15000000    91.34300000
   H     82.98000000    62.91000000    88.40300000
   H     84.12000000    61.80000000    88.94300000
   H     82.65000000    61.66000000    89.74300000
   H     81.77000000    66.31000000    89.86300000
   H     83.04000000    65.51000000    88.89300000
   H     81.52000000    64.76000000    88.96300000
   N     84.56000000    63.94000000    93.70300000
   C     84.89000000    64.96000000    94.67300000
   C     85.15000000    64.46000000    96.08300000
   O     85.53000000    65.28000000    96.92300000
   C     83.86000000    66.08000000    94.66300000
   C     82.40000000    65.66000000    94.54300000
   O     81.51000000    66.53000000    94.42300000
   O     82.07000000    64.47000000    94.68300000
   H     83.68000000    63.48000000    93.86300000
   H     85.89000000    65.33000000    94.41300000
   H     84.03000000    66.71000000    93.78300000
   H     83.93000000    66.72000000    95.54300000
   N     85.02000000    63.17000000    96.40300000
   C     85.67000000    62.62000000    97.57300000
   C     84.66000000    62.52000000    98.71300000
   O     84.86000000    62.99000000    99.82300000
   H     84.61000000    62.58000000    95.69300000
   H     86.51000000    63.21000000    97.94300000
   H     86.01000000    61.61000000    97.35300000
   N     83.53000000    61.83000000    98.50300000
   C     82.54000000    61.50000000    99.50300000
   C     82.00000000    60.08000000    99.56300000
   O     81.19000000    59.74000000   100.41300000
   C     81.35000000    62.45000000    99.30300000
   C     80.84000000    62.54000000    97.87300000
   O     80.61000000    63.61000000    97.26300000
   O     80.68000000    61.46000000    97.26300000
   H     83.45000000    61.36000000    97.61300000
   H     83.00000000    61.73000000   100.45300000
   H     81.67000000    63.47000000    99.52300000
   H     80.57000000    62.13000000    99.98300000
   N     82.43000000    59.15000000    98.70300000
   C     82.08000000    57.75000000    98.62300000
   C     80.75000000    57.46000000    97.95300000
   O     80.20000000    56.38000000    98.18300000
   H     83.11000000    59.45000000    98.01300000
   H     82.04000000    57.34000000    99.64300000
   H     82.80000000    57.20000000    98.01300000
   N     80.13000000    58.33000000    97.16300000
   C     78.81000000    58.29000000    96.56300000
   C     78.86000000    59.05000000    95.24300000
   O     79.67000000    59.93000000    94.96300000
   C     77.73000000    58.65000000    97.58300000
   C     77.93000000    60.04000000    98.18300000
   C     76.83000000    60.53000000    99.12300000
   N     76.72000000    61.82000000    99.42300000
   O     76.07000000    59.73000000    99.66300000
   H     80.65000000    59.19000000    97.06300000
   H     78.66000000    57.28000000    96.17300000
   H     77.76000000    57.98000000    98.45300000
   H     76.76000000    58.58000000    97.11300000
   H     77.87000000    60.81000000    97.42300000
   H     78.91000000    60.18000000    98.63300000
   H     77.13000000    62.60000000    98.93300000
   H     75.93000000    61.94000000   100.04300000
   N     77.98000000    58.66000000    94.31300000
   C     77.61000000    59.39000000    93.12300000
   C     76.28000000    60.12000000    93.19300000
   O     75.26000000    59.57000000    93.59300000
   C     77.69000000    58.45000000    91.92300000
   C     79.17000000    58.11000000    91.71300000
   C     76.90000000    57.14000000    91.87300000
   H     77.60000000    57.73000000    94.45300000
   H     78.37000000    60.14000000    92.93300000
   H     77.28000000    59.00000000    91.07300000
   H     79.82000000    58.98000000    91.78300000
   H     79.54000000    57.31000000    92.35300000
   H     79.22000000    57.79000000    90.67300000
   H     77.20000000    56.43000000    91.10300000
   H     77.00000000    56.65000000    92.84300000
   H     75.85000000    57.33000000    91.64300000
   N     76.26000000    61.41000000    92.82300000
   C     75.05000000    62.16000000    92.56300000
   C     74.68000000    62.09000000    91.08300000
   O     75.40000000    61.54000000    90.25300000
   C     75.28000000    63.60000000    93.03300000
   C     75.89000000    64.44000000    91.92300000
   N     77.16000000    64.13000000    91.62300000
   O     75.30000000    65.32000000    91.29300000
   H     77.14000000    61.80000000    92.53300000
   H     74.20000000    61.84000000    93.16300000
   H     75.90000000    63.65000000    93.93300000
   H     74.31000000    64.05000000    93.25300000
   H     77.81000000    63.63000000    92.21300000
   H     77.67000000    64.65000000    90.92300000
   N     73.58000000    62.64000000    90.57300000
   C     73.17000000    62.59000000    89.18300000
   C     74.23000000    63.01000000    88.17300000
   O     74.49000000    62.32000000    87.19300000
   C     71.97000000    63.51000000    89.05300000
   C     71.48000000    63.52000000    87.62300000
   C     70.75000000    62.45000000    87.09300000
   C     71.90000000    64.55000000    86.76300000
   C     70.34000000    62.45000000    85.76300000
   C     71.54000000    64.59000000    85.41300000
   C     70.76000000    63.52000000    84.95300000
   O     70.44000000    63.55000000    83.62300000
   H     72.89000000    62.87000000    91.27300000
   H     72.76000000    61.60000000    88.96300000
   H     72.17000000    64.54000000    89.34300000
   H     71.10000000    63.16000000    89.61300000
   H     70.54000000    61.56000000    87.68300000
   H     72.56000000    65.29000000    87.18300000
   H     69.70000000    61.63000000    85.46300000
   H     71.79000000    65.35000000    84.68300000
   H     70.52000000    64.36000000    83.10300000
   N     74.87000000    64.17000000    88.35300000
   C     75.95000000    64.68000000    87.53300000
   C     77.22000000    63.85000000    87.54300000
   O     78.02000000    63.95000000    86.62300000
   C     76.27000000    66.08000000    88.05300000
   C     75.14000000    67.10000000    88.12300000
   C     74.62000000    67.57000000    86.77300000
   O     73.43000000    67.94000000    86.69300000
   O     75.36000000    67.48000000    85.76300000
   H     74.60000000    64.71000000    89.15300000
   H     75.66000000    64.66000000    86.48300000
   H     77.07000000    66.54000000    87.47300000
   H     76.54000000    65.87000000    89.09300000
   H     75.40000000    67.97000000    88.71300000
   H     74.29000000    66.68000000    88.67300000
   N     77.41000000    62.96000000    88.53300000
   C     78.36000000    61.87000000    88.44300000
   C     77.80000000    60.65000000    87.71300000
   O     78.53000000    60.03000000    86.93300000
   C     78.74000000    61.41000000    89.85300000
   C     79.76000000    62.37000000    90.46300000
   C     79.92000000    62.12000000    91.95300000
   O     78.97000000    62.41000000    92.71300000
   O     80.99000000    61.66000000    92.41300000
   H     76.73000000    62.96000000    89.27300000
   H     79.24000000    62.27000000    87.95300000
   H     79.17000000    60.42000000    89.73300000
   H     77.87000000    61.37000000    90.49300000
   H     79.43000000    63.40000000    90.32300000
   H     80.70000000    62.06000000    89.99300000
   N     76.52000000    60.33000000    87.89300000
   C     75.81000000    59.21000000    87.30300000
   H     74.88000000    59.56400000    86.85800000
   H     76.43000000    58.75200000    86.53200000
   H     75.58500000    58.47400000    88.07500000
   H     76.04000000    60.92000000    88.55300000
  Ca     80.52000000    62.44000000    94.83000000
   O     77.73000000    62.39000000    95.55000000
   H     76.84000000    62.10000000    95.34000000
   H     77.62000000    62.97000000    96.30000000
   O     79.31000000    64.85000000    94.78000000
   H     78.62000000    65.49000000    94.98000000
   H     80.08000000    65.38000000    94.59000000

Ca 1.00



