%chk=loop2.apoCaM-CA-Ng.Init293.run10.water7.chk
%nprocshared=20
%mem=10GB
%nosave
#b3lyp/svp scf=(tight,noincore,xqc) Test 
#IOP(5/87=12) Density=Current Pop=(MK,readradii) iop(6/33=2) iop(6/42=6)

loop2.apoCaM-CA-Ng.Init293.run10.water7 

   -2  1 
   C     49.60000000    18.42000000    15.76000000
   C     48.65000000    17.42000000    15.14000000
   O     48.00000000    16.73000000    15.92000000
   H     50.49700000    18.49800000    15.14500000
   H     49.11500000    19.39400000    15.81900000
   H     49.87400000    18.08900000    16.76200000
   N     48.71000000    17.36000000    13.80000000
   C     48.29000000    16.25000000    12.96000000
   C     48.92000000    14.94000000    13.40000000
   O     48.22000000    13.95000000    13.54000000
   C     48.63000000    16.65000000    11.53000000
   C     47.94000000    15.72000000    10.54000000
   O     46.80000000    15.90000000    10.06000000
   O     48.65000000    14.86000000     9.98000000
   H     49.13000000    18.13000000    13.32000000
   H     47.20000000    16.11000000    12.99000000
   H     49.68000000    16.90000000    11.36000000
   H     48.22000000    17.66000000    11.47000000
   N     50.21000000    14.95000000    13.75000000
   C     50.98000000    13.75000000    14.04000000
   C     50.41000000    12.87000000    15.14000000
   O     50.49000000    11.65000000    15.05000000
   C     51.28000000    13.07000000    12.71000000
   H     50.75000000    15.78000000    13.54000000
   H     51.86000000    14.19000000    14.52000000
   H     50.36000000    12.57000000    12.42000000
   H     51.69000000    13.76000000    11.97000000
   H     52.04000000    12.29000000    12.75000000
   N     49.88000000    13.43000000    16.23000000
   C     49.79000000    12.82000000    17.54000000
   C     48.87000000    11.62000000    17.72000000
   O     49.01000000    10.85000000    18.67000000
   C     51.19000000    12.58000000    18.11000000
   C     52.00000000    13.86000000    18.23000000
   O     53.21000000    13.80000000    17.92000000
   O     51.49000000    14.91000000    18.70000000
   H     49.64000000    14.40000000    16.08000000
   H     49.38000000    13.55000000    18.24000000
   H     51.69000000    11.90000000    17.42000000
   H     51.11000000    12.04000000    19.05000000
   N     47.85000000    11.48000000    16.87000000
   C     46.88000000    10.41000000    16.93000000
   C     45.68000000    10.91000000    17.72000000
   O     45.47000000    12.12000000    17.75000000
   H     47.85000000    12.15000000    16.11000000
   H     47.32000000     9.51000000    17.36000000
   H     46.62000000    10.16000000    15.90000000
   N     44.86000000     9.96000000    18.19000000
   C     43.62000000    10.19000000    18.91000000
   C     42.61000000    11.09000000    18.21000000
   O     41.95000000    11.85000000    18.92000000
   C     43.89000000    10.69000000    20.33000000
   C     44.91000000     9.87000000    21.10000000
   N     45.49000000    10.46000000    22.15000000
   O     45.14000000     8.67000000    20.91000000
   H     44.97000000     9.05000000    17.77000000
   H     43.19000000     9.19000000    18.94000000
   H     43.03000000    10.80000000    20.99000000
   H     44.31000000    11.69000000    20.25000000
   H     45.38000000    11.44000000    22.35000000
   H     46.08000000     9.91000000    22.76000000
   N     42.43000000    11.05000000    16.89000000
   C     41.59000000    11.98000000    16.17000000
   C     42.07000000    13.42000000    16.05000000
   O     41.59000000    14.21000000    15.24000000
   H     42.92000000    10.38000000    16.31000000
   H     40.66000000    12.06000000    16.73000000
   H     41.45000000    11.65000000    15.14000000
   N     42.98000000    13.83000000    16.94000000
   C     43.61000000    15.13000000    17.00000000
   C     43.58000000    15.80000000    18.36000000
   O     43.85000000    15.15000000    19.37000000
   C     45.05000000    15.08000000    16.48000000
   C     45.28000000    14.23000000    15.23000000
   O     45.43000000    16.41000000    16.22000000
   H     43.21000000    13.11000000    17.62000000
   H     43.06000000    15.82000000    16.36000000
   H     45.71000000    14.66000000    17.24000000
   H     46.38000000    16.47000000    16.09000000
   H     44.58000000    14.50000000    14.44000000
   H     46.30000000    14.38000000    14.88000000
   H     45.22000000    13.16000000    15.40000000
   N     43.46000000    17.13000000    18.42000000
   C     43.88000000    17.93000000    19.55000000
   C     45.32000000    17.75000000    19.99000000
   O     46.19000000    17.39000000    19.20000000
   C     43.57000000    19.37000000    19.16000000
   C     43.20000000    20.24000000    20.36000000
   C     44.57000000    19.95000000    18.17000000
   C     42.64000000    21.62000000    20.04000000
   H     43.35000000    17.63000000    17.55000000
   H     43.21000000    17.64000000    20.36000000
   H     42.66000000    19.19000000    18.58000000
   H     44.11000000    20.39000000    20.93000000
   H     42.54000000    19.72000000    21.05000000
   H     44.31000000    20.96000000    17.86000000
   H     45.55000000    20.12000000    18.61000000
   H     44.63000000    19.35000000    17.26000000
   H     41.90000000    21.54000000    19.25000000
   H     42.12000000    21.99000000    20.92000000
   H     43.40000000    22.33000000    19.69000000
   N     45.53000000    17.96000000    21.30000000
   C     46.89000000    18.08000000    21.78000000
   C     47.18000000    17.57000000    23.18000000
   O     48.06000000    18.00000000    23.91000000
   C     47.37000000    19.52000000    21.59000000
   C     48.87000000    19.59000000    21.40000000
   O     49.50000000    18.59000000    20.98000000
   O     49.52000000    20.59000000    21.77000000
   H     44.90000000    18.44000000    21.93000000
   H     47.41000000    17.30000000    21.22000000
   H     47.08000000    20.15000000    22.44000000
   H     46.88000000    19.95000000    20.72000000
   N     46.30000000    16.65000000    23.57000000
   C     46.47000000    15.83000000    24.76000000
   C     45.44000000    15.87000000    25.89000000
   O     45.84000000    15.65000000    27.03000000
   C     46.83000000    14.45000000    24.23000000
   C     45.57000000    13.72000000    23.82000000
   C     44.96000000    12.82000000    24.70000000
   C     44.92000000    14.04000000    22.62000000
   C     43.74000000    12.21000000    24.39000000
   C     43.69000000    13.47000000    22.30000000
   C     43.11000000    12.55000000    23.18000000
   H     45.64000000    16.35000000    22.86000000
   H     47.40000000    16.22000000    25.17000000
   H     47.36000000    14.04000000    25.09000000
   H     47.55000000    14.57000000    23.42000000
   H     45.53000000    12.52000000    25.57000000
   H     45.40000000    14.71000000    21.92000000
   H     43.28000000    11.46000000    25.02000000
   H     43.15000000    13.93000000    21.48000000
   H     42.10000000    12.21000000    23.00000000
   N     44.16000000    16.16000000    25.70000000
   C     43.49000000    16.56000000    24.48000000
   C     43.44000000    18.08000000    24.31000000
   O     43.19000000    18.56000000    23.21000000
   C     42.04000000    16.14000000    24.72000000
   C     41.80000000    16.32000000    26.22000000
   C     43.18000000    15.91000000    26.74000000
   H     43.79000000    15.94000000    23.65000000
   H     41.39000000    16.88000000    24.24000000
   H     41.83000000    15.13000000    24.37000000
   H     41.53000000    17.32000000    26.54000000
   H     41.03000000    15.65000000    26.61000000
   H     43.50000000    16.48000000    27.61000000
   H     43.05000000    14.87000000    27.04000000
   N     43.63000000    18.77000000    25.44000000
   C     43.68000000    20.22000000    25.49000000
   C     44.95000000    20.86000000    24.94000000
   O     46.03000000    20.28000000    24.94000000
   C     43.39000000    20.57000000    26.94000000
   C     41.90000000    20.42000000    27.26000000
   C     41.65000000    20.55000000    28.76000000
   O     41.15000000    19.59000000    29.39000000
   O     41.72000000    21.64000000    29.35000000
   H     43.87000000    18.29000000    26.29000000
   H     42.77000000    20.59000000    25.01000000
   H     43.62000000    21.62000000    27.07000000
   H     44.03000000    20.02000000    27.64000000
   H     41.60000000    19.41000000    26.97000000
   H     41.33000000    21.18000000    26.73000000
   N     44.81000000    22.11000000    24.49000000
   C     45.77000000    22.88000000    23.72000000
   H     46.70500000    22.32400000    23.64600000
   H     45.37400000    23.06000000    22.72000000
   H     45.95300000    23.83300000    24.21600000
   H     43.92000000    22.56000000    24.64000000
  Ca     50.68000000    16.28000000    20.66000000
   O     52.37000000    17.98000000    22.01000000
   H     52.13000000    18.82000000    22.41000000
   H     53.32000000    17.93000000    22.14000000
   O     48.69000000    16.73000000    18.65000000
   H     47.97000000    17.22000000    19.06000000
   H     48.53000000    16.84000000    17.71000000
   O     53.71000000    15.28000000    21.38000000
   H     54.18000000    15.48000000    20.57000000
   H     53.79000000    14.33000000    21.48000000
   O     50.23000000    16.06000000    23.39000000
   H     50.46000000    15.57000000    24.18000000
   H     49.40000000    16.48000000    23.59000000
   O     51.90000000    18.10000000    19.10000000
   H     52.40000000    18.18000000    18.29000000
   H     51.87000000    18.99000000    19.45000000
   O     51.23000000    13.70000000    21.59000000
   H     52.02000000    13.21000000    21.83000000
   H     50.54000000    13.05000000    21.57000000
   O     48.41000000    14.70000000    21.05000000
   H     47.70000000    14.57000000    20.41000000
   H     48.61000000    13.82000000    21.36000000

Ca 1.00



