%chk=loop1.apoCaM-CA-Ng.Init31.run54.water4.chk
%nprocshared=20
%mem=10GB
%nosave
#b3lyp/svp scf=(tight,noincore,xqc) Test 
#IOP(5/87=12) Density=Current Pop=(MK,readradii) iop(6/33=2) iop(6/42=6)

loop1.apoCaM-CA-Ng.Init31.run54.water4 

   0  1 
   C     96.61000000    82.07000000     9.32000000
   C     97.95000000    82.61000000     8.86000000
   O     98.71000000    83.23000000     9.60000000
   H     95.85600000    82.27300000     8.55900000
   H     96.68600000    80.99400000     9.47700000
   H     96.32300000    82.55500000    10.25300000
   N     98.25000000    82.51000000     7.56000000
   C     99.54000000    82.65000000     6.93000000
   C     99.34000000    83.09000000     5.48000000
   O     98.27000000    83.01000000     4.88000000
   C    100.31000000    81.34000000     7.08000000
   C    101.74000000    81.45000000     6.58000000
   O    102.35000000    82.51000000     6.31000000
   O    102.39000000    80.39000000     6.44000000
   H     97.49000000    82.28000000     6.93000000
   H    100.13000000    83.45000000     7.37000000
   H     99.81000000    80.55000000     6.51000000
   H    100.30000000    80.97000000     8.11000000
   N    100.39000000    83.65000000     4.89000000
   C    100.61000000    84.19000000     3.56000000
   C     99.93000000    83.34000000     2.50000000
   O     99.05000000    83.83000000     1.80000000
   C    102.09000000    84.47000000     3.35000000
   C    102.39000000    85.09000000     1.99000000
   C    103.85000000    85.54000000     1.92000000
   C    104.27000000    86.49000000     0.80000000
   N    103.74000000    87.85000000     0.95000000
   H    101.26000000    83.69000000     5.40000000
   H    100.12000000    85.16000000     3.53000000
   H    102.81000000    83.66000000     3.53000000
   H    102.40000000    85.13000000     4.17000000
   H    101.80000000    85.97000000     1.76000000
   H    102.17000000    84.39000000     1.18000000
   H    104.54000000    84.71000000     1.86000000
   H    104.11000000    86.06000000     2.85000000
   H    103.89000000    85.99000000    -0.09000000
   H    105.36000000    86.46000000     0.82000000
   H    102.83000000    87.78000000     0.52000000
   H    103.74000000    88.19000000     1.90000000
   H    104.40000000    88.47000000     0.50000000
   N    100.29000000    82.06000000     2.33000000
   C    101.29000000    81.29000000     3.04000000
   C    100.86000000    79.85000000     3.26000000
   O     99.88000000    79.44000000     2.65000000
   C    102.45000000    81.24000000     2.06000000
   C    103.82000000    81.16000000     2.73000000
   O    103.78000000    80.83000000     3.93000000
   O    104.84000000    81.30000000     2.02000000
   H     99.71000000    81.47000000     1.75000000
   H    101.49000000    81.89000000     3.93000000
   H    102.36000000    82.04000000     1.32000000
   H    102.29000000    80.34000000     1.47000000
   N    101.46000000    79.05000000     4.15000000
   C    101.12000000    77.65000000     4.31000000
   C    101.90000000    76.98000000     5.42000000
   O    101.33000000    76.26000000     6.24000000
   H    102.15000000    79.43000000     4.78000000
   H    101.38000000    77.06000000     3.44000000
   H    100.05000000    77.53000000     4.50000000
   N    103.18000000    77.31000000     5.65000000
   C    104.04000000    76.54000000     6.52000000
   C    103.94000000    75.03000000     6.36000000
   O    103.92000000    74.55000000     5.23000000
   C    105.49000000    77.02000000     6.45000000
   C    105.50000000    78.54000000     6.54000000
   O    104.98000000    79.03000000     7.57000000
   O    105.81000000    79.23000000     5.55000000
   H    103.55000000    78.00000000     5.02000000
   H    103.67000000    76.79000000     7.52000000
   H    105.92000000    76.71000000     5.49000000
   H    106.12000000    76.62000000     7.24000000
   N    103.93000000    74.19000000     7.40000000
   C    104.05000000    74.49000000     8.81000000
   C    105.42000000    74.65000000     9.45000000
   O    105.45000000    75.10000000    10.60000000
   H    103.96000000    73.23000000     7.10000000
   H    103.60000000    73.64000000     9.31000000
   H    103.48000000    75.39000000     9.07000000
   N    106.51000000    74.30000000     8.76000000
   C    107.69000000    73.80000000     9.43000000
   C    107.28000000    72.75000000    10.46000000
   O    107.54000000    72.82000000    11.66000000
   C    108.64000000    74.86000000     9.98000000
   C    108.79000000    76.00000000     8.98000000
   O    109.90000000    74.27000000    10.21000000
   H    106.29000000    73.98000000     7.83000000
   H    108.29000000    73.30000000     8.67000000
   H    108.24000000    75.30000000    10.89000000
   H    109.83000000    74.18000000    11.16000000
   H    108.85000000    75.72000000     7.93000000
   H    107.94000000    76.67000000     9.12000000
   H    109.67000000    76.59000000     9.25000000
   N    106.74000000    71.67000000     9.90000000
   C    106.67000000    70.40000000    10.59000000
   C    108.08000000    69.88000000    10.85000000
   O    108.58000000    69.00000000    10.15000000
   C    105.78000000    70.45000000    11.83000000
   C    104.45000000    71.19000000    11.70000000
   C    105.38000000    69.08000000    12.37000000
   C    103.61000000    70.74000000    10.51000000
   H    106.68000000    71.62000000     8.89000000
   H    106.14000000    69.62000000    10.05000000
   H    106.23000000    71.09000000    12.60000000
   H    104.56000000    72.27000000    11.59000000
   H    103.75000000    71.12000000    12.53000000
   H    104.89000000    69.13000000    13.34000000
   H    104.84000000    68.53000000    11.60000000
   H    106.30000000    68.51000000    12.40000000
   H    102.63000000    71.22000000    10.46000000
   H    104.03000000    70.93000000     9.52000000
   H    103.41000000    69.68000000    10.64000000
   N    108.64000000    70.25000000    12.01000000
   C    109.70000000    69.51000000    12.65000000
   C    109.80000000    69.87000000    14.13000000
   O    109.19000000    70.87000000    14.52000000
   C    111.08000000    69.72000000    12.03000000
   C    111.47000000    71.14000000    11.62000000
   O    111.14000000    68.92000000    10.87000000
   H    108.30000000    71.06000000    12.51000000
   H    109.58000000    68.43000000    12.57000000
   H    111.81000000    69.36000000    12.75000000
   H    110.24000000    68.99000000    10.54000000
   H    111.45000000    71.81000000    12.48000000
   H    112.52000000    71.10000000    11.33000000
   H    110.79000000    71.57000000    10.88000000
   N    110.52000000    69.13000000    14.96000000
   C    110.65000000    69.54000000    16.34000000
   C    111.53000000    70.77000000    16.48000000
   O    112.43000000    70.98000000    15.67000000
   C    111.21000000    68.44000000    17.24000000
   C    110.38000000    67.17000000    17.35000000
   O    112.52000000    68.08000000    16.84000000
   H    110.87000000    68.22000000    14.68000000
   H    109.64000000    69.69000000    16.75000000
   H    111.30000000    68.73000000    18.29000000
   H    112.50000000    67.93000000    15.89000000
   H    109.51000000    67.49000000    17.94000000
   H    109.95000000    66.90000000    16.38000000
   H    110.91000000    66.34000000    17.80000000
   N    111.27000000    71.49000000    17.58000000
   C    111.99000000    72.68000000    17.98000000
   C    111.98000000    73.74000000    16.89000000
   O    112.97000000    74.42000000    16.63000000
   C    113.41000000    72.32000000    18.40000000
   C    113.46000000    71.67000000    19.78000000
   C    114.83000000    71.05000000    20.05000000
   C    114.74000000    70.38000000    21.42000000
   N    115.98000000    69.70000000    21.83000000
   H    110.55000000    71.10000000    18.16000000
   H    111.46000000    73.10000000    18.84000000
   H    114.04000000    73.21000000    18.43000000
   H    113.87000000    71.66000000    17.67000000
   H    112.70000000    70.89000000    19.79000000
   H    113.24000000    72.32000000    20.62000000
   H    115.68000000    71.74000000    20.08000000
   H    114.99000000    70.34000000    19.24000000
   H    113.84000000    69.77000000    21.35000000
   H    114.64000000    71.15000000    22.19000000
   H    116.09000000    68.86000000    21.29000000
   H    116.76000000    70.31000000    21.59000000
   H    115.92000000    69.48000000    22.81000000
   N    110.81000000    73.85000000    16.26000000
   C    110.45000000    74.88000000    15.31000000
   C    109.38000000    74.47000000    14.30000000
   O    109.53000000    74.79000000    13.13000000
   C    110.11000000    76.20000000    16.00000000
   C    110.28000000    77.46000000    15.16000000
   C    111.69000000    78.05000000    15.16000000
   O    112.01000000    79.04000000    15.85000000
   O    112.53000000    77.40000000    14.50000000
   H    110.01000000    73.43000000    16.71000000
   H    111.36000000    75.01000000    14.74000000
   H    110.63000000    76.34000000    16.95000000
   H    109.07000000    76.12000000    16.31000000
   H    109.64000000    78.17000000    15.68000000
   H    109.96000000    77.32000000    14.13000000
   N    108.33000000    73.72000000    14.62000000
   C    107.73000000    73.24000000    15.85000000
   H    106.71900000    72.88700000    15.64700000
   H    108.32700000    72.42000000    16.25000000
   H    107.69200000    74.05100000    16.57700000
   H    107.78000000    73.62000000    13.78000000
  Ca    104.81300000    81.40000000     6.39000000
   O    104.68300000    83.99000000     7.18000000
   H    105.19300000    84.80000000     7.11000000
   H    103.78300000    84.28000000     7.34000000
   O    105.78300000    82.96000000     4.27000000
   H    105.61300000    82.42000000     3.50000000
   H    106.69300000    83.23000000     4.18000000
   O    107.11300000    81.56000000     7.40000000
   H    107.87300000    81.31000000     6.88000000
   H    107.30300000    81.22000000     8.27000000
   O    103.94300000    81.67000000     9.05000000
   H    103.96300000    80.97000000     9.70000000
   H    103.42300000    82.37000000     9.46000000

Ca 1.00



