%chk=loop1.apoCaM-CA-Ng.Init293.run1.water3.chk
%nprocshared=20
%mem=10GB
%nosave
#b3lyp/svp scf=(tight,noincore,xqc) Test 
#IOP(5/87=12) Density=Current Pop=(MK,readradii) iop(6/33=2) iop(6/42=6)

loop1.apoCaM-CA-Ng.Init293.run1.water3 

   0  1 
   C     46.90000000    38.15000000    10.60000000
   C     46.95000000    38.34000000     9.09000000
   O     47.91000000    38.89000000     8.56000000
   H     45.96800000    38.56200000    10.98700000
   H     46.95200000    37.08700000    10.83500000
   H     47.74300000    38.66600000    11.06000000
   N     46.05000000    37.69000000     8.34000000
   C     46.01000000    37.62000000     6.89000000
   C     44.82000000    38.38000000     6.32000000
   O     44.38000000    38.12000000     5.20000000
   C     45.94000000    36.16000000     6.46000000
   C     44.67000000    35.50000000     6.98000000
   O     44.50000000    35.44000000     8.22000000
   O     43.89000000    34.85000000     6.25000000
   H     45.45000000    37.04000000     8.81000000
   H     46.88000000    38.12000000     6.48000000
   H     46.79000000    35.58000000     6.84000000
   H     45.95000000    36.06000000     5.37000000
   N     44.26000000    39.36000000     7.03000000
   C     43.28000000    40.30000000     6.52000000
   C     43.95000000    41.66000000     6.60000000
   O     43.75000000    42.28000000     7.65000000
   C     41.97000000    40.22000000     7.29000000
   C     41.21000000    38.97000000     6.85000000
   C     39.83000000    38.80000000     7.48000000
   C     38.91000000    37.91000000     6.64000000
   N     39.15000000    36.48000000     6.85000000
   H     44.53000000    39.50000000     8.00000000
   H     42.98000000    40.08000000     5.50000000
   H     41.31000000    41.03000000     6.96000000
   H     42.09000000    40.13000000     8.37000000
   H     41.85000000    38.16000000     7.20000000
   H     41.08000000    38.89000000     5.77000000
   H     39.42000000    39.80000000     7.43000000
   H     39.87000000    38.37000000     8.48000000
   H     39.03000000    38.15000000     5.58000000
   H     37.89000000    38.12000000     6.96000000
   H     38.36000000    35.86000000     6.74000000
   H     39.85000000    36.22000000     6.18000000
   H     39.55000000    36.31000000     7.76000000
   N     44.66000000    42.26000000     5.65000000
   C     45.02000000    42.02000000     4.26000000
   C     43.89000000    41.82000000     3.27000000
   O     42.80000000    41.34000000     3.59000000
   C     46.02000000    40.87000000     4.16000000
   C     47.35000000    41.25000000     3.52000000
   O     48.05000000    42.12000000     4.08000000
   O     47.75000000    40.63000000     2.51000000
   H     45.11000000    43.10000000     5.99000000
   H     45.47000000    42.98000000     4.02000000
   H     45.54000000    40.07000000     3.61000000
   H     46.19000000    40.36000000     5.10000000
   N     44.03000000    42.24000000     2.01000000
   C     45.27000000    42.64000000     1.39000000
   C     45.00000000    42.97000000    -0.08000000
   O     44.34000000    43.96000000    -0.37000000
   H     43.25000000    41.99000000     1.42000000
   H     45.99000000    41.82000000     1.45000000
   H     45.66000000    43.56000000     1.83000000
   N     45.40000000    42.16000000    -1.06000000
   C     46.52000000    41.24000000    -0.97000000
   C     46.06000000    39.83000000    -0.61000000
   O     45.48000000    39.09000000    -1.40000000
   C     47.32000000    41.21000000    -2.27000000
   C     48.63000000    40.46000000    -2.04000000
   O     48.59000000    39.24000000    -2.31000000
   O     49.61000000    41.03000000    -1.52000000
   H     44.96000000    42.34000000    -1.94000000
   H     47.14000000    41.52000000    -0.12000000
   H     47.58000000    42.24000000    -2.49000000
   H     46.81000000    40.80000000    -3.14000000
   N     46.10000000    39.43000000     0.66000000
   C     45.61000000    38.16000000     1.13000000
   C     46.52000000    37.32000000     2.02000000
   O     46.15000000    36.16000000     2.20000000
   H     46.76000000    39.96000000     1.22000000
   H     45.26000000    37.49000000     0.35000000
   H     44.74000000    38.32000000     1.77000000
   N     47.70000000    37.75000000     2.46000000
   C     48.66000000    37.00000000     3.24000000
   C     49.37000000    37.94000000     4.21000000
   O     49.69000000    39.06000000     3.84000000
   C     49.81000000    36.48000000     2.38000000
   C     49.41000000    35.47000000     1.31000000
   O     50.83000000    35.85000000     3.12000000
   H     47.88000000    38.75000000     2.42000000
   H     48.27000000    36.14000000     3.78000000
   H     50.27000000    37.31000000     1.84000000
   H     51.50000000    35.62000000     2.47000000
   H     49.00000000    35.96000000     0.43000000
   H     50.32000000    35.00000000     0.96000000
   H     48.71000000    34.75000000     1.75000000
   N     49.74000000    37.41000000     5.38000000
   C     50.54000000    38.05000000     6.40000000
   C     51.89000000    38.55000000     5.88000000
   O     52.24000000    39.66000000     6.28000000
   C     50.74000000    37.05000000     7.53000000
   C     51.11000000    37.71000000     8.86000000
   C     51.71000000    35.94000000     7.14000000
   C     51.08000000    36.85000000    10.12000000
   H     49.41000000    36.48000000     5.58000000
   H     49.91000000    38.84000000     6.79000000
   H     49.78000000    36.57000000     7.73000000
   H     50.47000000    38.58000000     8.98000000
   H     52.05000000    38.24000000     8.69000000
   H     51.80000000    35.20000000     7.94000000
   H     51.28000000    35.33000000     6.35000000
   H     52.71000000    36.31000000     6.91000000
   H     51.41000000    37.42000000    10.98000000
   H     50.04000000    36.57000000    10.32000000
   H     51.64000000    35.92000000    10.11000000
   N     52.49000000    37.86000000     4.90000000
   C     53.63000000    38.29000000     4.13000000
   C     54.86000000    38.87000000     4.83000000
   O     55.91000000    38.25000000     4.72000000
   C     53.23000000    39.10000000     2.90000000
   C     54.35000000    39.49000000     1.94000000
   O     52.61000000    40.29000000     3.34000000
   H     52.10000000    36.97000000     4.63000000
   H     53.97000000    37.35000000     3.72000000
   H     52.50000000    38.48000000     2.39000000
   H     53.23000000    40.98000000     3.12000000
   H     54.85000000    40.40000000     2.27000000
   H     55.14000000    38.76000000     1.78000000
   H     53.93000000    39.85000000     1.00000000
   N     54.79000000    39.96000000     5.59000000
   C     55.85000000    40.80000000     6.11000000
   C     56.57000000    41.55000000     5.00000000
   O     56.62000000    41.10000000     3.85000000
   C     56.66000000    40.13000000     7.21000000
   C     55.84000000    39.54000000     8.36000000
   O     57.58000000    41.00000000     7.82000000
   H     53.85000000    40.27000000     5.80000000
   H     55.43000000    41.60000000     6.71000000
   H     57.10000000    39.31000000     6.64000000
   H     58.27000000    40.37000000     8.06000000
   H     55.29000000    40.36000000     8.82000000
   H     55.21000000    38.74000000     7.99000000
   H     56.45000000    39.04000000     9.11000000
   N     57.06000000    42.74000000     5.35000000
   C     57.85000000    43.65000000     4.55000000
   C     57.33000000    45.05000000     4.27000000
   O     58.01000000    45.84000000     3.61000000
   C     59.26000000    43.68000000     5.13000000
   C     60.02000000    42.36000000     5.16000000
   C     61.52000000    42.37000000     5.44000000
   C     62.44000000    42.73000000     4.28000000
   N     62.50000000    44.17000000     4.02000000
   H     56.84000000    43.09000000     6.28000000
   H     57.85000000    43.17000000     3.57000000
   H     59.40000000    44.26000000     6.04000000
   H     59.79000000    44.24000000     4.36000000
   H     59.84000000    41.81000000     4.24000000
   H     59.52000000    41.97000000     6.04000000
   H     61.82000000    41.34000000     5.65000000
   H     61.68000000    42.96000000     6.34000000
   H     62.18000000    42.09000000     3.44000000
   H     63.39000000    42.35000000     4.67000000
   H     61.61000000    44.51000000     3.70000000
   H     62.70000000    44.74000000     4.83000000
   H     63.15000000    44.38000000     3.27000000
   N     56.17000000    45.56000000     4.69000000
   C     55.10000000    45.12000000     5.56000000
   C     55.40000000    44.68000000     6.98000000
   O     54.65000000    43.92000000     7.60000000
   C     54.15000000    44.19000000     4.80000000
   C     53.37000000    44.88000000     3.68000000
   C     52.41000000    43.85000000     3.11000000
   O     51.18000000    43.98000000     3.33000000
   O     52.72000000    42.75000000     2.60000000
   H     55.98000000    46.43000000     4.20000000
   H     54.49000000    46.03000000     5.59000000
   H     53.43000000    43.67000000     5.44000000
   H     54.71000000    43.37000000     4.36000000
   H     54.14000000    45.07000000     2.94000000
   H     52.79000000    45.75000000     3.99000000
   N     56.55000000    45.11000000     7.49000000
   C     56.87000000    45.12000000     8.90000000
   H     57.68300000    45.82200000     9.08200000
   H     55.99300000    45.42500000     9.47000000
   H     57.17700000    44.12100000     9.21100000
   H     56.97000000    45.87000000     6.98000000
  Ca     50.30000000    41.50000000     2.90000000
   O     49.95000000    43.24000000     0.72000000
   H     49.11000000    43.61000000     0.46000000
   H     50.55000000    43.49000000     0.01000000
   O     50.95000000    40.25000000     0.51000000
   H     50.35000000    40.41000000    -0.21000000
   H     51.79000000    40.05000000     0.09000000
   O     50.98000000    41.86000000     5.29000000
   H     50.80000000    42.73000000     5.64000000
   H     51.08000000    41.30000000     6.06000000

Ca 1.00



