%chk=loop4.apoCaM-CA-Ng.Init295.run14.water4.chk
%nprocshared=20
%mem=10GB
%nosave
#b3lyp/svp scf=(tight,noincore,xqc) Test 
#IOP(5/87=12) Density=Current Pop=(MK,readradii) iop(6/33=2) iop(6/42=6)

loop4.apoCaM-CA-Ng.Init295.run14.water4 

   -3  1 
   C    102.22000000    35.12000000    80.46000000
   C    102.92000000    35.66000000    81.70000000
   O    103.40000000    36.79000000    81.61000000
   H    101.31700000    35.70000000    80.27200000
   H    102.88800000    35.19900000    79.60200000
   H    101.95300000    34.07500000    80.61900000
   N    102.99000000    34.94000000    82.82000000
   C    103.82000000    35.28000000    83.95000000
   C    103.43000000    36.54000000    84.69000000
   O    104.22000000    37.48000000    84.82000000
   C    105.31000000    35.31000000    83.62000000
   C    105.63000000    34.24000000    82.59000000
   O    105.98000000    34.58000000    81.44000000
   O    105.81000000    33.04000000    82.90000000
   H    102.38000000    34.14000000    82.93000000
   H    103.70000000    34.48000000    84.68000000
   H    105.86000000    34.95000000    84.50000000
   H    105.63000000    36.28000000    83.24000000
   N    102.16000000    36.69000000    85.08000000
   C    101.62000000    37.82000000    85.82000000
   C    101.35000000    37.52000000    87.28000000
   O    100.74000000    36.50000000    87.59000000
   C    100.39000000    38.41000000    85.13000000
   C    100.77000000    39.03000000    83.79000000
   C     99.54000000    39.39000000    85.94000000
   C     99.59000000    39.11000000    82.83000000
   H    101.54000000    35.93000000    84.85000000
   H    102.33000000    38.65000000    85.75000000
   H     99.74000000    37.59000000    84.86000000
   H    101.50000000    38.51000000    83.17000000
   H    101.11000000    40.06000000    83.95000000
   H     98.70000000    39.75000000    85.34000000
   H     99.17000000    38.91000000    86.85000000
   H     99.99000000    40.33000000    86.26000000
   H     98.77000000    39.73000000    83.20000000
   H     99.97000000    39.40000000    81.84000000
   H     99.15000000    38.12000000    82.74000000
   N    101.69000000    38.36000000    88.27000000
   C    102.68000000    39.41000000    88.27000000
   C    104.10000000    39.00000000    87.89000000
   O    104.82000000    39.91000000    87.48000000
   C    102.63000000    40.12000000    89.62000000
   C    101.17000000    40.40000000    89.95000000
   O    100.70000000    41.44000000    89.45000000
   O    100.51000000    39.56000000    90.59000000
   H    101.37000000    38.01000000    89.16000000
   H    102.35000000    40.13000000    87.52000000
   H    103.12000000    41.09000000    89.57000000
   H    103.00000000    39.54000000    90.47000000
   N    104.62000000    37.81000000    88.17000000
   C    105.98000000    37.37000000    87.90000000
   C    107.03000000    38.19000000    88.64000000
   O    106.97000000    38.32000000    89.86000000
   H    104.06000000    37.10000000    88.63000000
   H    106.22000000    37.37000000    86.84000000
   H    106.10000000    36.37000000    88.32000000
   N    108.07000000    38.60000000    87.92000000
   C    109.16000000    39.35000000    88.52000000
   C    109.27000000    40.75000000    87.93000000
   O    109.95000000    41.60000000    88.50000000
   C    110.43000000    38.53000000    88.29000000
   C    110.79000000    38.19000000    86.85000000
   O    110.85000000    37.02000000    86.41000000
   O    111.19000000    39.11000000    86.10000000
   H    108.24000000    38.25000000    86.99000000
   H    109.05000000    39.38000000    89.60000000
   H    110.41000000    37.58000000    88.83000000
   H    111.27000000    39.08000000    88.71000000
   N    108.65000000    40.93000000    86.76000000
   C    108.43000000    42.19000000    86.07000000
   C    109.29000000    42.50000000    84.85000000
   O    108.90000000    43.37000000    84.08000000
   H    108.13000000    40.12000000    86.48000000
   H    108.60000000    43.04000000    86.73000000
   H    107.39000000    42.20000000    85.77000000
   N    110.41000000    41.81000000    84.62000000
   C    111.33000000    42.01000000    83.52000000
   C    110.63000000    42.11000000    82.17000000
   O    111.09000000    42.87000000    81.31000000
   C    112.42000000    43.03000000    83.86000000
   C    113.78000000    42.64000000    83.30000000
   C    114.85000000    43.72000000    83.21000000
   N    115.68000000    43.72000000    82.17000000
   O    115.01000000    44.61000000    84.04000000
   H    110.44000000    40.96000000    85.15000000
   H    111.86000000    41.06000000    83.41000000
   H    112.44000000    43.07000000    84.94000000
   H    112.12000000    44.01000000    83.49000000
   H    113.67000000    42.30000000    82.27000000
   H    114.27000000    41.83000000    83.84000000
   H    115.68000000    42.87000000    81.61000000
   H    116.47000000    44.34000000    82.15000000
   N    109.69000000    41.22000000    81.87000000
   C    109.01000000    40.95000000    80.62000000
   C    109.83000000    40.19000000    79.58000000
   O    110.64000000    39.32000000    79.90000000
   C    107.68000000    40.23000000    80.86000000
   C    107.76000000    38.76000000    81.27000000
   C    106.82000000    40.93000000    81.90000000
   H    109.60000000    40.43000000    82.50000000
   H    108.72000000    41.93000000    80.24000000
   H    107.20000000    40.18000000    79.88000000
   H    106.86000000    38.40000000    81.75000000
   H    108.03000000    38.16000000    80.40000000
   H    108.54000000    38.67000000    82.03000000
   H    105.80000000    40.54000000    81.86000000
   H    107.16000000    40.64000000    82.89000000
   H    106.78000000    42.01000000    81.77000000
   N    109.78000000    40.74000000    78.37000000
   C    110.71000000    40.36000000    77.33000000
   C    109.90000000    39.64000000    76.27000000
   O    108.74000000    39.97000000    76.03000000
   C    111.18000000    41.70000000    76.77000000
   C    112.04000000    41.70000000    75.52000000
   N    113.03000000    40.82000000    75.32000000
   O    111.79000000    42.45000000    74.58000000
   H    109.25000000    41.59000000    78.21000000
   H    111.61000000    39.86000000    77.71000000
   H    111.78000000    42.16000000    77.56000000
   H    110.34000000    42.34000000    76.49000000
   H    113.19000000    40.07000000    75.98000000
   H    113.55000000    40.87000000    74.46000000
   N    110.53000000    38.66000000    75.62000000
   C    109.95000000    37.93000000    74.51000000
   C    110.70000000    36.62000000    74.31000000
   O    111.82000000    36.52000000    74.81000000
   C    109.84000000    38.78000000    73.26000000
   C    109.58000000    38.17000000    71.90000000
   C    108.31000000    37.66000000    71.61000000
   C    110.57000000    38.17000000    70.91000000
   C    108.01000000    37.26000000    70.30000000
   C    110.28000000    37.60000000    69.66000000
   C    108.99000000    37.16000000    69.30000000
   O    108.69000000    36.69000000    68.05000000
   H    111.49000000    38.42000000    75.81000000
   H    108.96000000    37.55000000    74.75000000
   H    110.77000000    39.35000000    73.28000000
   H    109.05000000    39.51000000    73.46000000
   H    107.56000000    37.77000000    72.38000000
   H    111.56000000    38.52000000    71.17000000
   H    106.99000000    37.03000000    70.02000000
   H    111.01000000    37.76000000    68.89000000
   H    109.46000000    36.69000000    67.47000000
   N    110.18000000    35.70000000    73.50000000
   C    110.95000000    34.72000000    72.76000000
   C    110.24000000    34.34000000    71.48000000
   O    110.82000000    34.33000000    70.40000000
   C    111.14000000    33.49000000    73.65000000
   C    111.86000000    32.34000000    72.96000000
   C    112.38000000    31.24000000    73.88000000
   O    111.59000000    30.45000000    74.44000000
   O    113.60000000    31.21000000    74.16000000
   H    109.36000000    36.00000000    72.98000000
   H    111.91000000    35.18000000    72.51000000
   H    110.19000000    33.06000000    73.95000000
   H    111.75000000    33.81000000    74.50000000
   H    112.70000000    32.82000000    72.46000000
   H    111.41000000    31.91000000    72.06000000
   N    108.91000000    34.23000000    71.40000000
   C    107.89000000    33.77000000    72.32000000
   C    106.61000000    34.50000000    71.93000000
   O    106.32000000    34.58000000    70.74000000
   C    107.79000000    32.25000000    72.31000000
   C    108.18000000    31.44000000    71.07000000
   C    107.77000000    29.98000000    71.09000000
   O    108.14000000    29.34000000    72.10000000
   O    107.15000000    29.46000000    70.14000000
   H    108.50000000    34.62000000    70.56000000
   H    108.27000000    34.06000000    73.30000000
   H    106.80000000    31.90000000    72.60000000
   H    108.58000000    31.95000000    72.99000000
   H    109.27000000    31.35000000    71.02000000
   H    107.71000000    31.86000000    70.18000000
   N    105.82000000    34.98000000    72.90000000
   C    104.48000000    35.51000000    72.79000000
   H    103.81700000    34.96100000    73.45800000
   H    104.48200000    36.56400000    73.06600000
   H    104.13000000    35.40300000    71.76300000
   H    106.22000000    34.98000000    73.83000000
  Ca    106.53200000    32.10000000    80.30000000
   O    105.94200000    33.64000000    78.19000000
   H    106.50200000    33.38000000    77.45000000
   H    105.87200000    34.59000000    78.11000000
   O    108.70200000    32.67000000    78.89000000
   H    109.07200000    33.51000000    78.61000000
   H    109.46200000    32.10000000    78.97000000
   O    105.15200000    30.33000000    81.71000000
   H    105.16200000    30.20000000    82.65000000
   H    104.94200000    29.47000000    81.35000000
   O    108.00200000    29.93000000    81.24000000
   H    108.72200000    29.71000000    81.83000000
   H    107.51200000    29.11000000    81.13000000

Ca 1.00



