%chk=loop2.apoCaM-CA-Ng.Init295.run72.water3.chk
%nprocshared=20
%mem=10GB
%nosave
#b3lyp/svp scf=(tight,noincore,xqc) Test 
#IOP(5/87=12) Density=Current Pop=(MK,readradii) iop(6/33=2) iop(6/42=6)

loop2.apoCaM-CA-Ng.Init295.run72.water3 

   -2  1 
   C     21.43000000     5.58000000    40.27000000
   C     22.53000000     5.57000000    41.32000000
   O     22.92000000     6.63000000    41.81000000
   H     20.59100000     6.17600000    40.62900000
   H     21.81300000     6.01300000    39.34600000
   H     21.09600000     4.55900000    40.08300000
   N     23.19000000     4.45000000    41.65000000
   C     24.47000000     4.40000000    42.32000000
   C     24.32000000     4.25000000    43.83000000
   O     25.23000000     4.50000000    44.62000000
   C     25.39000000     3.35000000    41.72000000
   C     26.85000000     3.53000000    42.14000000
   O     27.47000000     4.52000000    41.70000000
   O     27.36000000     2.61000000    42.81000000
   H     22.70000000     3.59000000    41.45000000
   H     25.02000000     5.34000000    42.30000000
   H     25.48000000     3.40000000    40.63000000
   H     25.10000000     2.37000000    42.11000000
   N     23.07000000     4.04000000    44.24000000
   C     22.72000000     3.85000000    45.63000000
   C     21.38000000     3.13000000    45.74000000
   O     20.56000000     3.18000000    44.82000000
   C     22.55000000     5.25000000    46.20000000
   H     22.35000000     3.70000000    43.61000000
   H     23.53000000     3.31000000    46.11000000
   H     23.27000000     5.88000000    45.68000000
   H     21.54000000     5.57000000    45.94000000
   H     22.69000000     5.16000000    47.28000000
   N     21.05000000     2.44000000    46.84000000
   C     21.76000000     2.39000000    48.10000000
   C     21.86000000     0.98000000    48.68000000
   O     20.87000000     0.27000000    48.82000000
   C     21.04000000     3.33000000    49.06000000
   C     21.82000000     3.78000000    50.29000000
   O     23.06000000     3.81000000    50.18000000
   O     21.18000000     3.90000000    51.36000000
   H     20.13000000     2.03000000    46.79000000
   H     22.79000000     2.66000000    47.91000000
   H     20.12000000     2.83000000    49.39000000
   H     20.62000000     4.23000000    48.62000000
   N     23.07000000     0.49000000    48.93000000
   C     23.39000000    -0.80000000    49.51000000
   C     24.33000000    -1.56000000    48.58000000
   O     25.13000000    -0.93000000    47.89000000
   H     23.87000000     1.05000000    48.66000000
   H     22.47000000    -1.31000000    49.79000000
   H     23.88000000    -0.66000000    50.47000000
   N     24.25000000    -2.89000000    48.57000000
   C     23.32000000    -3.73000000    49.31000000
   C     21.84000000    -3.44000000    49.07000000
   O     21.50000000    -2.90000000    48.02000000
   C     23.66000000    -5.15000000    48.87000000
   C     22.96000000    -6.22000000    49.69000000
   N     23.69000000    -6.92000000    50.56000000
   O     21.77000000    -6.47000000    49.55000000
   H     24.93000000    -3.43000000    48.06000000
   H     23.55000000    -3.58000000    50.36000000
   H     24.73000000    -5.33000000    49.01000000
   H     23.49000000    -5.25000000    47.80000000
   H     24.66000000    -6.89000000    50.82000000
   H     23.20000000    -7.69000000    51.01000000
   N     21.02000000    -3.58000000    50.11000000
   C     19.58000000    -3.41000000    50.03000000
   C     18.88000000    -2.21000000    50.65000000
   O     17.71000000    -2.32000000    51.03000000
   H     21.43000000    -4.18000000    50.82000000
   H     19.02000000    -4.24000000    50.45000000
   H     19.36000000    -3.42000000    48.96000000
   N     19.54000000    -1.07000000    50.87000000
   C     19.25000000    -0.20000000    51.99000000
   C     18.42000000     1.03000000    51.63000000
   O     18.76000000     2.17000000    51.94000000
   C     20.49000000     0.17000000    52.81000000
   C     21.04000000    -1.04000000    53.55000000
   O     21.45000000     0.87000000    52.05000000
   H     20.42000000    -0.87000000    50.42000000
   H     18.62000000    -0.78000000    52.66000000
   H     20.06000000     0.79000000    53.59000000
   H     20.91000000     1.47000000    51.54000000
   H     20.26000000    -1.52000000    54.14000000
   H     21.37000000    -1.79000000    52.83000000
   H     21.84000000    -0.84000000    54.27000000
   N     17.27000000     0.77000000    51.02000000
   C     16.43000000     1.77000000    50.40000000
   C     15.24000000     2.23000000    51.23000000
   O     14.23000000     1.59000000    51.52000000
   C     15.99000000     1.28000000    49.02000000
   C     17.31000000     1.13000000    48.27000000
   C     15.13000000     0.02000000    49.13000000
   C     17.20000000     1.13000000    46.75000000
   H     17.06000000    -0.19000000    50.80000000
   H     17.10000000     2.60000000    50.21000000
   H     15.36000000     2.00000000    48.49000000
   H     17.73000000     0.17000000    48.57000000
   H     18.01000000     1.88000000    48.64000000
   H     14.11000000     0.22000000    49.47000000
   H     15.09000000    -0.32000000    48.10000000
   H     15.47000000    -0.75000000    49.83000000
   H     17.09000000     2.14000000    46.36000000
   H     18.00000000     0.56000000    46.27000000
   H     16.24000000     0.69000000    46.46000000
   N     15.33000000     3.50000000    51.64000000
   C     14.37000000     4.34000000    52.33000000
   C     13.71000000     5.42000000    51.50000000
   O     14.33000000     6.16000000    50.73000000
   C     14.98000000     4.94000000    53.60000000
   C     15.94000000     4.03000000    54.36000000
   O     15.46000000     3.08000000    55.01000000
   O     17.17000000     4.23000000    54.23000000
   H     16.10000000     4.05000000    51.30000000
   H     13.49000000     3.72000000    52.54000000
   H     14.24000000     5.41000000    54.24000000
   H     15.66000000     5.72000000    53.26000000
   N     12.39000000     5.49000000    51.65000000
   C     11.55000000     6.55000000    51.13000000
   C     11.91000000     6.67000000    49.65000000
   O     11.86000000     5.69000000    48.91000000
   C     10.08000000     6.21000000    51.29000000
   C      9.09000000     7.27000000    50.88000000
   C      8.49000000     7.22000000    49.62000000
   C      8.93000000     8.42000000    51.67000000
   C      7.75000000     8.30000000    49.14000000
   C      8.09000000     9.46000000    51.25000000
   C      7.48000000     9.39000000    49.99000000
   H     11.98000000     4.90000000    52.37000000
   H     11.72000000     7.50000000    51.64000000
   H      9.77000000     6.00000000    52.32000000
   H      9.85000000     5.35000000    50.66000000
   H      8.71000000     6.33000000    49.04000000
   H      9.30000000     8.37000000    52.69000000
   H      7.36000000     8.26000000    48.13000000
   H      7.92000000    10.28000000    51.93000000
   H      6.84000000    10.19000000    49.65000000
   N     12.28000000     7.84000000    49.14000000
   C     12.54000000     8.01000000    47.72000000
   C     13.72000000     7.31000000    47.06000000
   O     13.76000000     7.33000000    45.83000000
   C     12.72000000     9.51000000    47.52000000
   C     11.68000000    10.04000000    48.51000000
   C     12.05000000     9.16000000    49.70000000
   H     11.66000000     7.61000000    47.22000000
   H     13.72000000     9.80000000    47.86000000
   H     12.57000000     9.90000000    46.52000000
   H     11.82000000    11.12000000    48.50000000
   H     10.67000000     9.86000000    48.12000000
   H     12.96000000     9.48000000    50.20000000
   H     11.15000000     9.09000000    50.30000000
   N     14.53000000     6.61000000    47.85000000
   C     15.67000000     5.87000000    47.35000000
   C     15.26000000     4.75000000    46.41000000
   O     15.84000000     4.54000000    45.34000000
   C     16.40000000     5.25000000    48.55000000
   C     17.10000000     6.40000000    49.26000000
   C     18.02000000     5.93000000    50.37000000
   O     17.69000000     4.93000000    51.06000000
   O     19.08000000     6.54000000    50.63000000
   H     14.41000000     6.66000000    48.85000000
   H     16.29000000     6.59000000    46.82000000
   H     17.12000000     4.53000000    48.16000000
   H     15.70000000     4.71000000    49.19000000
   H     16.32000000     7.09000000    49.59000000
   H     17.77000000     6.84000000    48.52000000
   N     14.16000000     4.02000000    46.65000000
   C     13.69000000     3.03000000    45.71000000
   H     12.78700000     3.39400000    45.22100000
   H     14.46000000     2.84600000    44.96000000
   H     13.46700000     2.10300000    46.23900000
   H     13.57000000     4.28000000    47.43000000
  Ca     19.42000000     4.89000000    52.84000000
   O     20.79000000     3.33000000    54.51000000
   H     21.44000000     2.68000000    54.77000000
   H     19.97000000     3.02000000    54.90000000
   O     21.49000000     6.67000000    53.36000000
   H     22.42000000     6.48000000    53.33000000
   H     21.41000000     7.36000000    54.03000000
   O     17.95000000     7.41000000    53.20000000
   H     17.42000000     7.81000000    52.51000000
   H     18.12000000     8.12000000    53.82000000

Ca 1.00



