%chk=loop3.holoCaM.run5.water2.chk
%nprocshared=20
%mem=10GB
%nosave
#b3lyp/svp scf=(tight,noincore,xqc) Test 
#IOP(5/87=12) Density=Current Pop=(MK,readradii) iop(6/33=2) iop(6/42=6)

loop3.holoCaM.run5.water2 

   0  1 
   C     35.04000000    35.62000000    45.28000000
   C     35.27000000    34.64000000    46.43000000
   O     34.48000000    34.55000000    47.36000000
   H     34.26400000    36.33200000    45.56000000
   H     35.96500000    36.15600000    45.06800000
   H     34.72600000    35.07200000    44.39200000
   N     36.40000000    33.92000000    46.37000000
   C     36.92000000    33.02000000    47.38000000
   C     37.35000000    33.86000000    48.57000000
   O     37.97000000    34.91000000    48.47000000
   C     38.15000000    32.29000000    46.85000000
   C     38.61000000    31.13000000    47.72000000
   O     38.07000000    30.96000000    48.83000000
   O     39.56000000    30.43000000    47.31000000
   H     37.00000000    34.22000000    45.62000000
   H     36.19000000    32.23000000    47.55000000
   H     38.90000000    33.07000000    46.79000000
   H     37.99000000    31.89000000    45.84000000
   N     36.94000000    33.39000000    49.75000000
   C     37.06000000    34.18000000    50.97000000
   C     38.47000000    34.15000000    51.53000000
   O     38.89000000    35.18000000    52.05000000
   C     36.00000000    33.80000000    52.00000000
   C     36.02000000    34.73000000    53.21000000
   C     34.85000000    34.32000000    54.10000000
   C     34.79000000    35.08000000    55.42000000
   N     33.49000000    34.73000000    56.00000000
   H     36.52000000    32.48000000    49.85000000
   H     36.86000000    35.23000000    50.75000000
   H     36.20000000    32.78000000    52.33000000
   H     34.99000000    33.92000000    51.61000000
   H     35.98000000    35.78000000    52.93000000
   H     36.95000000    34.63000000    53.78000000
   H     34.87000000    33.23000000    54.18000000
   H     34.02000000    34.63000000    53.46000000
   H     34.87000000    36.15000000    55.24000000
   H     35.63000000    34.83000000    56.07000000
   H     32.80000000    35.07000000    55.34000000
   H     33.33000000    33.75000000    56.19000000
   H     33.27000000    35.15000000    56.90000000
   N     39.24000000    33.06000000    51.56000000
   C     40.59000000    32.86000000    52.03000000
   C     41.46000000    32.97000000    50.78000000
   O     42.63000000    33.31000000    50.97000000
   C     40.85000000    31.66000000    52.93000000
   C     40.36000000    30.31000000    52.42000000
   O     39.79000000    30.24000000    51.31000000
   O     40.44000000    29.37000000    53.24000000
   H     38.84000000    32.35000000    50.96000000
   H     40.82000000    33.71000000    52.67000000
   H     40.38000000    31.82000000    53.90000000
   H     41.87000000    31.59000000    53.29000000
   N     41.00000000    32.62000000    49.58000000
   C     41.83000000    32.50000000    48.40000000
   C     42.46000000    31.12000000    48.25000000
   O     43.43000000    31.00000000    47.50000000
   H     39.99000000    32.58000000    49.50000000
   H     42.68000000    33.17000000    48.53000000
   H     41.27000000    32.80000000    47.51000000
   N     42.01000000    30.07000000    48.95000000
   C     42.63000000    28.77000000    49.07000000
   C     42.42000000    27.92000000    47.82000000
   O     42.61000000    26.71000000    47.90000000
   C     42.35000000    28.11000000    50.41000000
   C     41.05000000    27.32000000    50.39000000
   N     41.01000000    26.17000000    51.06000000
   O     40.08000000    27.68000000    49.72000000
   H     41.20000000    30.23000000    49.52000000
   H     43.69000000    28.98000000    49.21000000
   H     42.35000000    28.77000000    51.29000000
   H     43.13000000    27.39000000    50.64000000
   H     41.75000000    25.80000000    51.65000000
   H     40.13000000    25.67000000    51.01000000
   N     41.99000000    28.49000000    46.69000000
   C     41.72000000    27.80000000    45.44000000
   C     40.50000000    26.90000000    45.40000000
   O     40.37000000    26.25000000    44.37000000
   H     41.88000000    29.49000000    46.77000000
   H     42.63000000    27.25000000    45.21000000
   H     41.58000000    28.56000000    44.67000000
   N     39.55000000    27.01000000    46.33000000
   C     38.27000000    26.34000000    46.44000000
   C     37.20000000    27.30000000    46.97000000
   O     37.44000000    27.99000000    47.95000000
   C     38.40000000    25.13000000    47.36000000
   C     39.43000000    24.11000000    46.94000000
   C     40.52000000    23.93000000    47.81000000
   C     39.27000000    23.27000000    45.84000000
   C     41.42000000    22.89000000    47.59000000
   C     40.10000000    22.16000000    45.64000000
   C     41.11000000    21.93000000    46.60000000
   O     41.84000000    20.79000000    46.47000000
   H     39.69000000    27.71000000    47.05000000
   H     38.09000000    25.98000000    45.43000000
   H     37.45000000    24.59000000    47.39000000
   H     38.67000000    25.44000000    48.37000000
   H     40.73000000    24.56000000    48.66000000
   H     38.43000000    23.45000000    45.18000000
   H     42.13000000    22.67000000    48.37000000
   H     39.89000000    21.53000000    44.79000000
   H     41.54000000    20.24000000    45.74000000
   N     35.98000000    27.24000000    46.43000000
   C     34.83000000    27.98000000    46.89000000
   C     33.88000000    27.03000000    47.62000000
   O     33.40000000    26.10000000    46.98000000
   C     34.30000000    28.91000000    45.80000000
   C     35.35000000    29.94000000    45.41000000
   C     33.07000000    29.58000000    46.41000000
   C     34.83000000    30.87000000    44.31000000
   H     35.86000000    26.67000000    45.61000000
   H     35.14000000    28.65000000    47.70000000
   H     33.94000000    28.38000000    44.92000000
   H     36.22000000    29.47000000    44.94000000
   H     35.67000000    30.54000000    46.26000000
   H     33.38000000    30.06000000    47.34000000
   H     32.59000000    30.31000000    45.77000000
   H     32.29000000    28.84000000    46.60000000
   H     35.61000000    31.58000000    44.02000000
   H     34.39000000    30.37000000    43.46000000
   H     34.08000000    31.58000000    44.65000000
   N     33.62000000    27.35000000    48.89000000
   C     32.57000000    26.81000000    49.73000000
   C     31.27000000    27.61000000    49.66000000
   O     31.24000000    28.81000000    49.41000000
   C     33.01000000    26.69000000    51.18000000
   O     34.26000000    26.04000000    51.35000000
   H     34.21000000    28.07000000    49.28000000
   H     32.40000000    25.80000000    49.37000000
   H     32.36000000    26.03000000    51.75000000
   H     33.11000000    27.70000000    51.58000000
   H     34.79000000    26.41000000    52.06000000
   N     30.10000000    27.01000000    49.88000000
   C     28.76000000    27.56000000    49.84000000
   C     28.72000000    28.96000000    50.45000000
   O     28.35000000    29.89000000    49.75000000
   C     27.83000000    26.59000000    50.56000000
   H     30.07000000    26.02000000    50.05000000
   H     28.41000000    27.73000000    48.82000000
   H     26.91000000    27.11000000    50.82000000
   H     27.56000000    25.74000000    49.93000000
   H     28.30000000    26.20000000    51.46000000
   N     29.14000000    29.18000000    51.70000000
   C     29.07000000    30.48000000    52.35000000
   C     29.80000000    31.55000000    51.55000000
   O     29.41000000    32.72000000    51.56000000
   C     29.59000000    30.43000000    53.78000000
   H     29.43000000    28.41000000    52.28000000
   H     28.03000000    30.79000000    52.40000000
   H     29.06000000    29.70000000    54.39000000
   H     30.65000000    30.18000000    53.69000000
   H     29.41000000    31.39000000    54.26000000
   N     30.93000000    31.31000000    50.88000000
   C     31.77000000    32.31000000    50.25000000
   C     31.15000000    32.70000000    48.92000000
   O     31.29000000    33.82000000    48.43000000
   C     33.15000000    31.68000000    50.04000000
   C     33.80000000    30.99000000    51.24000000
   C     35.09000000    30.28000000    50.84000000
   O     36.10000000    30.57000000    51.52000000
   O     35.16000000    29.35000000    50.01000000
   H     31.10000000    30.33000000    50.68000000
   H     31.88000000    33.11000000    50.99000000
   H     33.76000000    32.52000000    49.70000000
   H     32.99000000    30.98000000    49.23000000
   H     33.11000000    30.21000000    51.58000000
   H     34.02000000    31.74000000    51.99000000
   N     30.44000000    31.81000000    48.23000000
   C     29.76000000    32.10000000    46.98000000
   H     28.86300000    32.68500000    47.18200000
   H     30.42400000    32.66800000    46.32800000
   H     29.48200000    31.16600000    46.49200000
   H     30.42000000    30.83000000    48.50000000
  Ca     37.89000000    28.91000000    50.31000000
   O     38.56000000    27.73000000    52.62000000
   H     38.34000000    27.00000000    53.20000000
   H     39.35000000    28.11000000    53.00000000
   O     36.78000000    26.56000000    50.63000000
   H     35.82000000    26.52000000    50.65000000
   H     37.03000000    25.78000000    50.14000000

Ca 1.00



