%chk=loop4.apoCaM-CA-Ng.Init293.run80.water3.chk
%nprocshared=20
%mem=10GB
%nosave
#b3lyp/svp scf=(tight,noincore,xqc) Test 
#IOP(5/87=12) Density=Current Pop=(MK,readradii) iop(6/33=2) iop(6/42=6)

loop4.apoCaM-CA-Ng.Init293.run80.water3 

   -3  1 
   C     65.21000000    80.15000000    69.32000000
   C     64.69000000    79.14000000    70.33000000
   O     63.48000000    79.08000000    70.58000000
   H     66.22000000    79.87400000    69.01800000
   H     64.55900000    80.15800000    68.44600000
   H     65.22500000    81.14200000    69.77200000
   N     65.60000000    78.41000000    70.98000000
   C     65.48000000    77.34000000    71.96000000
   C     64.59000000    76.14000000    71.66000000
   O     64.65000000    75.13000000    72.35000000
   C     65.32000000    77.94000000    73.35000000
   C     64.09000000    78.83000000    73.51000000
   O     62.97000000    78.35000000    73.22000000
   O     64.21000000    79.97000000    74.01000000
   H     66.55000000    78.63000000    70.75000000
   H     66.52000000    77.03000000    71.89000000
   H     66.19000000    78.58000000    73.51000000
   H     65.49000000    77.11000000    74.03000000
   N     63.75000000    76.14000000    70.63000000
   C     62.67000000    75.21000000    70.35000000
   C     61.40000000    75.55000000    71.13000000
   O     61.10000000    76.70000000    71.41000000
   C     62.43000000    74.97000000    68.87000000
   C     63.50000000    74.08000000    68.26000000
   C     62.23000000    76.35000000    68.24000000
   C     63.31000000    73.66000000    66.80000000
   H     63.71000000    76.93000000    70.00000000
   H     62.99000000    74.29000000    70.84000000
   H     61.46000000    74.47000000    68.78000000
   H     63.63000000    73.16000000    68.82000000
   H     64.49000000    74.52000000    68.37000000
   H     63.19000000    76.87000000    68.21000000
   H     61.95000000    76.26000000    67.19000000
   H     61.61000000    77.07000000    68.76000000
   H     63.91000000    72.79000000    66.53000000
   H     62.28000000    73.43000000    66.55000000
   H     63.59000000    74.54000000    66.21000000
   N     60.68000000    74.52000000    71.59000000
   C     59.40000000    74.63000000    72.26000000
   C     59.58000000    75.21000000    73.66000000
   O     60.53000000    74.92000000    74.38000000
   C     58.79000000    73.23000000    72.37000000
   C     59.76000000    72.19000000    72.91000000
   O     60.69000000    71.79000000    72.18000000
   O     59.72000000    71.86000000    74.11000000
   H     60.99000000    73.63000000    71.25000000
   H     58.80000000    75.29000000    71.63000000
   H     58.62000000    72.98000000    71.33000000
   H     57.88000000    73.27000000    72.97000000
   N     58.75000000    76.15000000    74.12000000
   C     57.60000000    76.70000000    73.44000000
   C     57.89000000    78.03000000    72.76000000
   O     58.83000000    78.72000000    73.16000000
   H     59.15000000    76.66000000    74.89000000
   H     56.67000000    76.79000000    74.01000000
   H     57.36000000    76.04000000    72.61000000
   N     56.97000000    78.57000000    71.95000000
   C     55.72000000    78.04000000    71.42000000
   C     55.78000000    78.36000000    69.93000000
   O     56.60000000    79.17000000    69.51000000
   C     54.48000000    78.63000000    72.09000000
   C     54.54000000    80.13000000    72.33000000
   O     54.04000000    80.94000000    71.52000000
   O     55.16000000    80.62000000    73.30000000
   H     57.10000000    79.53000000    71.70000000
   H     55.61000000    76.96000000    71.44000000
   H     54.38000000    78.19000000    73.08000000
   H     53.63000000    78.39000000    71.46000000
   N     55.06000000    77.66000000    69.05000000
   C     54.07000000    76.62000000    69.22000000
   C     54.33000000    75.40000000    68.35000000
   O     54.14000000    74.27000000    68.80000000
   H     55.30000000    77.80000000    68.08000000
   H     53.11000000    76.96000000    68.83000000
   H     53.99000000    76.36000000    70.27000000
   N     54.72000000    75.65000000    67.10000000
   C     55.20000000    74.61000000    66.21000000
   C     56.13000000    75.08000000    65.10000000
   O     55.70000000    75.93000000    64.31000000
   C     53.98000000    73.90000000    65.63000000
   C     54.30000000    72.79000000    64.64000000
   C     53.04000000    72.01000000    64.28000000
   N     52.76000000    70.87000000    64.90000000
   O     52.23000000    72.42000000    63.45000000
   H     54.75000000    76.63000000    66.87000000
   H     55.72000000    73.88000000    66.84000000
   H     53.42000000    74.67000000    65.11000000
   H     53.34000000    73.57000000    66.45000000
   H     55.00000000    72.11000000    65.10000000
   H     54.77000000    73.19000000    63.74000000
   H     53.29000000    70.48000000    65.67000000
   H     51.86000000    70.51000000    64.62000000
   N     57.32000000    74.50000000    64.92000000
   C     58.18000000    74.82000000    63.80000000
   C     58.72000000    76.24000000    63.88000000
   O     58.85000000    76.94000000    64.88000000
   C     59.36000000    73.86000000    63.63000000
   C     58.90000000    72.54000000    63.01000000
   C     60.12000000    73.51000000    64.90000000
   H     57.71000000    73.85000000    65.59000000
   H     57.50000000    74.66000000    62.96000000
   H     59.98000000    74.37000000    62.90000000
   H     58.38000000    72.76000000    62.08000000
   H     59.80000000    71.94000000    62.90000000
   H     58.39000000    71.89000000    63.73000000
   H     59.48000000    72.88000000    65.53000000
   H     60.99000000    72.88000000    64.72000000
   H     60.35000000    74.45000000    65.40000000
   N     59.10000000    76.63000000    62.67000000
   C     59.87000000    77.83000000    62.41000000
   C     59.17000000    79.16000000    62.66000000
   O     59.76000000    80.13000000    63.15000000
   C     60.34000000    77.79000000    60.96000000
   C     61.28000000    78.94000000    60.62000000
   N     60.91000000    79.90000000    59.77000000
   O     62.41000000    79.01000000    61.12000000
   H     58.84000000    76.11000000    61.85000000
   H     60.67000000    77.76000000    63.15000000
   H     59.41000000    77.89000000    60.40000000
   H     60.75000000    76.85000000    60.60000000
   H     60.01000000    79.82000000    59.30000000
   H     61.46000000    80.74000000    59.73000000
   N     57.87000000    79.20000000    62.35000000
   C     57.19000000    80.48000000    62.30000000
   C     56.68000000    80.99000000    63.64000000
   O     56.35000000    80.16000000    64.49000000
   C     56.22000000    80.55000000    61.13000000
   C     56.16000000    81.78000000    60.26000000
   C     57.24000000    82.11000000    59.42000000
   C     55.14000000    82.71000000    60.49000000
   C     57.26000000    83.37000000    58.82000000
   C     55.12000000    83.93000000    59.81000000
   C     56.15000000    84.24000000    58.89000000
   O     56.17000000    85.43000000    58.24000000
   H     57.35000000    78.35000000    62.19000000
   H     58.01000000    81.13000000    62.00000000
   H     55.23000000    80.55000000    61.59000000
   H     56.30000000    79.67000000    60.49000000
   H     58.10000000    81.46000000    59.30000000
   H     54.36000000    82.48000000    61.20000000
   H     58.09000000    83.64000000    58.19000000
   H     54.38000000    84.70000000    59.97000000
   H     56.90000000    85.46000000    57.62000000
   N     56.68000000    82.29000000    63.95000000
   C     56.47000000    82.90000000    65.25000000
   C     57.63000000    82.57000000    66.18000000
   O     57.78000000    83.27000000    67.17000000
   C     55.06000000    82.66000000    65.77000000
   C     54.55000000    83.67000000    66.79000000
   C     54.54000000    85.12000000    66.33000000
   O     54.51000000    85.50000000    65.14000000
   O     54.56000000    86.02000000    67.20000000
   H     56.84000000    82.97000000    63.23000000
   H     56.56000000    83.98000000    65.07000000
   H     54.98000000    81.76000000    66.38000000
   H     54.44000000    82.60000000    64.88000000
   H     55.17000000    83.60000000    67.69000000
   H     53.57000000    83.29000000    67.04000000
   N     58.51000000    81.60000000    65.93000000
   C     59.89000000    81.62000000    66.39000000
   C     60.63000000    82.60000000    65.48000000
   O     61.44000000    83.43000000    65.88000000
   C     60.61000000    80.28000000    66.46000000
   C     59.96000000    79.29000000    67.42000000
   C     60.12000000    79.59000000    68.90000000
   O     59.70000000    78.86000000    69.82000000
   O     60.73000000    80.62000000    69.24000000
   H     58.36000000    80.85000000    65.26000000
   H     59.92000000    82.04000000    67.40000000
   H     61.68000000    80.45000000    66.63000000
   H     60.54000000    79.73000000    65.53000000
   H     60.38000000    78.29000000    67.29000000
   H     58.90000000    79.23000000    67.14000000
   N     60.43000000    82.55000000    64.16000000
   C     60.70000000    83.72000000    63.35000000
   H     61.71200000    83.65800000    62.95000000
   H     59.98700000    83.76500000    62.52700000
   H     60.60600000    84.61600000    63.96300000
   H     59.86000000    81.80000000    63.81000000
  Ca     61.10000000    79.36000000    71.87000000
   O     60.77000000    80.39000000    74.45000000
   H     60.11000000    79.97000000    75.00000000
   H     60.55000000    81.32000000    74.48000000
   O     62.56000000    81.40000000    72.33000000
   H     62.98000000    82.14000000    71.88000000
   H     63.29000000    80.89000000    72.69000000
   O     59.09000000    81.49000000    71.88000000
   H     58.21000000    81.54000000    71.51000000
   H     59.60000000    82.10000000    71.34000000

Ca 1.00



