%chk=loop2.apoCaM-CA-Ng.Init31.run33.water4.chk
%nprocshared=20
%mem=10GB
%nosave
#b3lyp/svp scf=(tight,noincore,xqc) Test 
#IOP(5/87=12) Density=Current Pop=(MK,readradii) iop(6/33=2) iop(6/42=6)

loop2.apoCaM-CA-Ng.Init31.run33.water4 

   -2  1 
   C    109.72000000    71.59000000    87.22000000
   C    109.20000000    70.73000000    86.08000000
   O    109.44000000    69.52000000    86.11000000
   H    110.61300000    72.12400000    86.89400000
   H    108.95400000    72.30900000    87.51200000
   H    109.96700000    70.95500000    88.07100000
   N    108.52000000    71.25000000    85.06000000
   C    107.95000000    72.58000000    84.94000000
   C    108.30000000    73.13000000    83.56000000
   O    108.12000000    72.45000000    82.55000000
   C    106.44000000    72.68000000    85.11000000
   C    105.63000000    71.70000000    84.26000000
   O    104.41000000    71.87000000    84.04000000
   O    106.17000000    70.77000000    83.63000000
   H    108.23000000    70.59000000    84.35000000
   H    108.47000000    73.27000000    85.60000000
   H    106.14000000    73.70000000    84.86000000
   H    106.25000000    72.61000000    86.18000000
   N    108.83000000    74.36000000    83.51000000
   C    109.17000000    75.27000000    82.44000000
   C    108.05000000    75.47000000    81.42000000
   O    107.66000000    76.61000000    81.17000000
   C    110.45000000    74.84000000    81.74000000
   H    108.98000000    74.81000000    84.40000000
   H    109.32000000    76.27000000    82.83000000
   H    111.25000000    74.80000000    82.48000000
   H    110.30000000    73.87000000    81.26000000
   H    110.61000000    75.49000000    80.88000000
   N    107.58000000    74.40000000    80.78000000
   C    106.85000000    74.45000000    79.53000000
   C    105.58000000    73.64000000    79.74000000
   O    105.62000000    72.56000000    80.32000000
   C    107.59000000    73.81000000    78.36000000
   C    108.08000000    72.38000000    78.46000000
   O    108.26000000    71.83000000    79.57000000
   O    108.39000000    71.83000000    77.38000000
   H    107.91000000    73.48000000    81.06000000
   H    106.60000000    75.48000000    79.28000000
   H    108.52000000    74.37000000    78.18000000
   H    106.98000000    73.94000000    77.47000000
   N    104.49000000    74.13000000    79.16000000
   C    103.27000000    73.36000000    79.03000000
   C    103.31000000    72.32000000    77.92000000
   O    104.17000000    72.34000000    77.05000000
   H    104.60000000    74.95000000    78.57000000
   H    102.51000000    74.10000000    78.79000000
   H    103.01000000    72.82000000    79.94000000
   N    102.38000000    71.36000000    77.99000000
   C    102.39000000    70.05000000    77.37000000
   C    100.99000000    69.47000000    77.35000000
   O    100.18000000    69.61000000    78.26000000
   C    103.28000000    69.03000000    78.07000000
   C    104.77000000    69.34000000    78.08000000
   N    105.52000000    69.11000000    77.01000000
   O    105.32000000    69.85000000    79.05000000
   H    101.51000000    71.66000000    78.40000000
   H    102.82000000    70.22000000    76.38000000
   H    103.28000000    68.10000000    77.50000000
   H    102.95000000    68.77000000    79.08000000
   H    105.06000000    68.77000000    76.17000000
   H    106.45000000    69.50000000    77.00000000
   N    100.58000000    68.95000000    76.19000000
   C     99.31000000    68.36000000    75.81000000
   C     99.55000000    67.15000000    74.93000000
   O    100.64000000    66.93000000    74.40000000
   H    101.30000000    68.89000000    75.48000000
   H     98.78000000    69.16000000    75.30000000
   H     98.78000000    68.07000000    76.71000000
   N     98.50000000    66.36000000    74.70000000
   C     97.21000000    66.51000000    75.33000000
   C     97.12000000    65.86000000    76.70000000
   O     96.48000000    66.38000000    77.61000000
   C     96.23000000    65.81000000    74.39000000
   C     94.76000000    66.21000000    74.45000000
   O     96.66000000    65.95000000    73.05000000
   H     98.64000000    65.58000000    74.07000000
   H     96.90000000    67.55000000    75.35000000
   H     96.27000000    64.74000000    74.57000000
   H     96.65000000    66.87000000    72.77000000
   H     94.27000000    65.55000000    73.73000000
   H     94.41000000    66.25000000    75.48000000
   H     94.61000000    67.24000000    74.12000000
   N     97.75000000    64.71000000    76.95000000
   C     97.76000000    63.87000000    78.13000000
   C     96.31000000    63.52000000    78.40000000
   O     95.71000000    63.86000000    79.42000000
   C     98.50000000    64.53000000    79.28000000
   C     99.84000000    65.12000000    78.84000000
   C     98.58000000    63.70000000    80.56000000
   C    100.99000000    64.20000000    78.44000000
   H     98.22000000    64.33000000    76.14000000
   H     98.38000000    62.99000000    77.94000000
   H     97.86000000    65.38000000    79.54000000
   H    100.19000000    65.78000000    79.63000000
   H     99.75000000    65.82000000    78.01000000
   H     99.04000000    64.27000000    81.36000000
   H     97.61000000    63.35000000    80.91000000
   H     99.15000000    62.80000000    80.35000000
   H    101.30000000    63.69000000    79.35000000
   H    100.64000000    63.50000000    77.68000000
   H    101.80000000    64.81000000    78.05000000
   N     95.58000000    62.87000000    77.49000000
   C     95.95000000    62.09000000    76.33000000
   C     96.39000000    60.72000000    76.85000000
   O     97.56000000    60.35000000    76.77000000
   C     94.81000000    62.02000000    75.32000000
   C     93.43000000    61.73000000    75.89000000
   O     93.22000000    61.48000000    77.09000000
   O     92.47000000    61.78000000    75.09000000
   H     94.65000000    62.67000000    77.82000000
   H     96.81000000    62.52000000    75.80000000
   H     95.05000000    61.34000000    74.50000000
   H     94.68000000    63.03000000    74.95000000
   N     95.52000000    60.05000000    77.61000000
   C     95.79000000    58.82000000    78.31000000
   C     95.32000000    57.64000000    77.47000000
   O     94.55000000    57.84000000    76.53000000
   C     95.16000000    58.91000000    79.70000000
   C     93.66000000    58.70000000    79.73000000
   C     92.80000000    59.80000000    79.82000000
   C     93.11000000    57.42000000    79.87000000
   C     91.44000000    59.53000000    80.01000000
   C     91.73000000    57.21000000    79.91000000
   C     90.83000000    58.27000000    80.05000000
   H     94.59000000    60.45000000    77.61000000
   H     96.87000000    58.79000000    78.44000000
   H     95.26000000    59.97000000    79.93000000
   H     95.76000000    58.33000000    80.39000000
   H     93.21000000    60.80000000    79.72000000
   H     93.77000000    56.57000000    79.94000000
   H     90.77000000    60.38000000    79.95000000
   H     91.33000000    56.20000000    79.90000000
   H     89.85000000    58.04000000    80.43000000
   N     95.70000000    56.39000000    77.75000000
   C     96.73000000    55.99000000    78.69000000
   C     98.08000000    56.26000000    78.04000000
   O     98.19000000    56.51000000    76.84000000
   C     96.63000000    54.49000000    78.94000000
   C     95.93000000    54.04000000    77.65000000
   C     95.00000000    55.20000000    77.31000000
   H     96.63000000    56.53000000    79.63000000
   H     97.59000000    54.02000000    79.17000000
   H     95.97000000    54.39000000    79.79000000
   H     96.69000000    53.87000000    76.90000000
   H     95.37000000    53.14000000    77.88000000
   H     94.80000000    55.23000000    76.24000000
   H     94.05000000    55.17000000    77.85000000
   N     99.13000000    56.25000000    78.86000000
   C    100.52000000    56.50000000    78.55000000
   C    101.42000000    57.02000000    79.66000000
   O    102.60000000    56.69000000    79.79000000
   C    101.12000000    55.27000000    77.86000000
   C    101.13000000    53.93000000    78.60000000
   C    101.38000000    53.99000000    80.10000000
   O    102.55000000    53.80000000    80.51000000
   O    100.44000000    54.28000000    80.87000000
   H     98.99000000    55.92000000    79.81000000
   H    100.54000000    57.28000000    77.79000000
   H    102.10000000    55.54000000    77.47000000
   H    100.51000000    55.07000000    76.98000000
   H    101.85000000    53.27000000    78.12000000
   H    100.17000000    53.47000000    78.38000000
   N    100.97000000    57.67000000    80.74000000
   C     99.71000000    58.28000000    81.12000000
   H     98.93800000    57.51300000    81.17500000
   H     99.81600000    58.75800000    82.09400000
   H     99.42800000    59.02600000    80.37700000
   H    101.72000000    57.87000000    81.38000000
  Ca    106.82500000    70.41000000    81.13000000
   O    108.53500000    68.81000000    79.59000000
   H    108.65500000    68.90000000    78.64000000
   H    108.54500000    67.87000000    79.75000000
   O    106.37500000    67.72000000    81.68000000
   H    105.52500000    67.28000000    81.60000000
   H    107.00500000    67.00000000    81.71000000
   O    104.35500000    69.93000000    81.77000000
   H    104.30500000    70.48000000    82.56000000
   H    103.54500000    70.12000000    81.30000000
   O    108.75500000    69.39000000    82.60000000
   H    109.67500000    69.51000000    82.83000000
   H    108.53500000    68.52000000    82.93000000

Ca 1.00



