%chk=loop2.apoCaM-CA-Ng.Init295.run22.water4.chk
%nprocshared=20
%mem=10GB
%nosave
#b3lyp/svp scf=(tight,noincore,xqc) Test 
#IOP(5/87=12) Density=Current Pop=(MK,readradii) iop(6/33=2) iop(6/42=6)

loop2.apoCaM-CA-Ng.Init295.run22.water4 

   -2  1 
   C     67.82000000    45.55000000    41.56000000
   C     66.80000000    46.11000000    40.58000000
   O     65.61000000    46.27000000    40.85000000
   H     68.69000000    46.20600000    41.59300000
   H     67.37500000    45.48700000    42.55300000
   H     68.12800000    44.55600000    41.23600000
   N     67.20000000    46.52000000    39.38000000
   C     66.48000000    47.19000000    38.31000000
   C     65.86000000    48.54000000    38.63000000
   O     65.89000000    49.48000000    37.83000000
   C     67.30000000    47.21000000    37.02000000
   C     67.62000000    45.93000000    36.26000000
   O     67.21000000    44.84000000    36.70000000
   O     68.42000000    46.06000000    35.30000000
   H     68.18000000    46.32000000    39.25000000
   H     65.63000000    46.54000000    38.09000000
   H     68.19000000    47.78000000    37.28000000
   H     66.84000000    47.89000000    36.30000000
   N     65.24000000    48.76000000    39.79000000
   C     64.64000000    50.00000000    40.25000000
   C     64.81000000    50.16000000    41.75000000
   O     65.12000000    49.16000000    42.40000000
   C     63.19000000    50.00000000    39.80000000
   H     65.18000000    47.99000000    40.44000000
   H     65.20000000    50.86000000    39.87000000
   H     62.80000000    49.02000000    40.04000000
   H     62.60000000    50.77000000    40.31000000
   H     63.17000000    50.23000000    38.73000000
   N     64.62000000    51.29000000    42.44000000
   C     64.37000000    52.60000000    41.87000000
   C     65.67000000    53.32000000    41.52000000
   O     66.67000000    53.08000000    42.19000000
   C     63.49000000    53.49000000    42.75000000
   C     62.23000000    52.81000000    43.26000000
   O     61.60000000    52.00000000    42.54000000
   O     61.69000000    53.15000000    44.33000000
   H     64.80000000    51.23000000    43.43000000
   H     63.86000000    52.43000000    40.93000000
   H     63.13000000    54.32000000    42.14000000
   H     64.05000000    53.86000000    43.61000000
   N     65.62000000    54.10000000    40.44000000
   C     66.87000000    54.55000000    39.87000000
   C     67.53000000    53.42000000    39.10000000
   O     66.87000000    52.74000000    38.31000000
   H     64.88000000    54.00000000    39.76000000
   H     67.51000000    54.95000000    40.66000000
   H     66.59000000    55.36000000    39.20000000
   N     68.85000000    53.22000000    39.10000000
   C     69.97000000    54.00000000    39.58000000
   C     70.44000000    53.61000000    40.98000000
   O     71.38000000    54.21000000    41.48000000
   C     71.11000000    54.00000000    38.55000000
   C     70.80000000    54.68000000    37.23000000
   N     71.87000000    55.21000000    36.62000000
   O     69.65000000    54.89000000    36.86000000
   H     69.00000000    52.42000000    38.51000000
   H     69.80000000    55.06000000    39.75000000
   H     71.33000000    52.94000000    38.39000000
   H     72.02000000    54.39000000    38.99000000
   H     72.80000000    55.13000000    37.01000000
   H     71.55000000    55.69000000    35.79000000
   N     69.81000000    52.69000000    41.70000000
   C     70.36000000    52.20000000    42.95000000
   C     69.90000000    52.96000000    44.18000000
   O     70.49000000    52.80000000    45.25000000
   H     69.06000000    52.14000000    41.29000000
   H     71.45000000    52.19000000    42.92000000
   H     69.88000000    51.23000000    43.09000000
   N     68.71000000    53.54000000    44.10000000
   C     68.01000000    54.33000000    45.10000000
   C     67.15000000    53.51000000    46.04000000
   O     65.93000000    53.66000000    46.14000000
   C     67.21000000    55.39000000    44.34000000
   C     66.83000000    56.60000000    45.19000000
   O     67.98000000    56.02000000    43.34000000
   H     68.16000000    53.36000000    43.27000000
   H     68.73000000    54.75000000    45.80000000
   H     66.30000000    54.93000000    43.95000000
   H     67.33000000    56.55000000    42.89000000
   H     66.30000000    57.31000000    44.56000000
   H     66.32000000    56.26000000    46.09000000
   H     67.76000000    57.11000000    45.44000000
   N     67.78000000    52.54000000    46.71000000
   C     67.17000000    51.47000000    47.47000000
   C     66.57000000    51.98000000    48.77000000
   O     66.96000000    52.97000000    49.39000000
   C     68.11000000    50.29000000    47.64000000
   C     68.47000000    49.64000000    46.30000000
   C     69.38000000    50.72000000    48.37000000
   C     67.39000000    49.37000000    45.26000000
   H     68.78000000    52.49000000    46.58000000
   H     66.33000000    51.18000000    46.84000000
   H     67.66000000    49.61000000    48.36000000
   H     69.04000000    48.72000000    46.42000000
   H     69.17000000    50.30000000    45.80000000
   H     69.15000000    51.14000000    49.35000000
   H     70.03000000    49.85000000    48.45000000
   H     69.88000000    51.47000000    47.77000000
   H     67.19000000    50.29000000    44.71000000
   H     67.84000000    48.60000000    44.63000000
   H     66.46000000    49.04000000    45.73000000
   N     65.60000000    51.24000000    49.31000000
   C     64.86000000    51.52000000    50.53000000
   C     64.54000000    50.10000000    50.99000000
   O     64.61000000    49.06000000    50.34000000
   C     63.62000000    52.36000000    50.28000000
   C     62.86000000    52.07000000    49.00000000
   O     63.17000000    52.66000000    47.94000000
   O     61.95000000    51.21000000    49.00000000
   H     65.32000000    50.40000000    48.83000000
   H     65.46000000    51.99000000    51.31000000
   H     63.83000000    53.43000000    50.24000000
   H     63.00000000    52.29000000    51.18000000
   N     64.16000000    50.02000000    52.27000000
   C     63.71000000    48.88000000    53.04000000
   C     64.44000000    47.57000000    52.82000000
   O     65.64000000    47.42000000    53.03000000
   C     63.79000000    49.25000000    54.52000000
   C     63.07000000    48.33000000    55.48000000
   C     63.68000000    47.19000000    56.00000000
   C     61.75000000    48.65000000    55.84000000
   C     62.99000000    46.40000000    56.92000000
   C     61.01000000    47.81000000    56.68000000
   C     61.65000000    46.68000000    57.20000000
   H     64.16000000    50.90000000    52.77000000
   H     62.67000000    48.67000000    52.78000000
   H     63.26000000    50.19000000    54.67000000
   H     64.84000000    49.29000000    54.82000000
   H     64.69000000    46.83000000    55.81000000
   H     61.22000000    49.47000000    55.38000000
   H     63.44000000    45.56000000    57.44000000
   H     60.01000000    48.13000000    56.94000000
   H     61.16000000    45.94000000    57.82000000
   N     63.77000000    46.48000000    52.43000000
   C     64.32000000    45.16000000    52.20000000
   C     65.20000000    45.15000000    50.96000000
   O     65.72000000    44.07000000    50.70000000
   C     63.15000000    44.19000000    52.05000000
   C     62.05000000    44.87000000    52.86000000
   C     62.33000000    46.33000000    52.51000000
   H     64.94000000    44.77000000    53.01000000
   H     62.85000000    44.18000000    51.00000000
   H     63.41000000    43.17000000    52.31000000
   H     61.06000000    44.48000000    52.61000000
   H     62.31000000    44.68000000    53.89000000
   H     61.80000000    46.53000000    51.58000000
   H     61.83000000    46.86000000    53.33000000
   N     65.39000000    46.15000000    50.10000000
   C     65.93000000    46.05000000    48.76000000
   C     67.44000000    45.84000000    48.69000000
   O     68.03000000    45.23000000    47.80000000
   C     65.62000000    47.29000000    47.93000000
   C     64.12000000    47.36000000    47.62000000
   C     63.65000000    48.66000000    46.99000000
   O     62.46000000    48.77000000    46.62000000
   O     64.47000000    49.59000000    46.85000000
   H     65.00000000    47.05000000    50.30000000
   H     65.54000000    45.23000000    48.15000000
   H     66.13000000    47.18000000    46.97000000
   H     65.90000000    48.18000000    48.48000000
   H     63.56000000    47.35000000    48.56000000
   H     63.86000000    46.45000000    47.09000000
   N     68.12000000    46.32000000    49.74000000
   C     69.52000000    46.06000000    50.03000000
   H     70.08900000    46.98500000    49.93100000
   H     69.61700000    45.68200000    51.04800000
   H     69.90600000    45.32000000    49.32900000
   H     67.55000000    46.72000000    50.47000000
  Ca     61.68000000    51.27000000    46.27000000
   O     59.78000000    51.21000000    44.25000000
   H     59.01000000    51.76000000    44.42000000
   H     60.34000000    51.74000000    43.68000000
   O     62.38000000    49.75000000    43.84000000
   H     62.82000000    49.08000000    43.31000000
   H     62.21000000    50.46000000    43.22000000
   O     59.27000000    50.23000000    46.95000000
   H     58.54000000    49.82000000    46.50000000
   H     58.94000000    50.41000000    47.83000000
   O     64.18000000    51.72000000    45.39000000
   H     64.67000000    52.44000000    45.79000000
   H     64.33000000    50.97000000    45.96000000

Ca 1.00



