%chk=loop2.apoCaM-CA-Ng.Init295.run52.water2.chk
%nprocshared=20
%mem=10GB
%nosave
#b3lyp/svp scf=(tight,noincore,xqc) Test 
#IOP(5/87=12) Density=Current Pop=(MK,readradii) iop(6/33=2) iop(6/42=6)

loop2.apoCaM-CA-Ng.Init295.run52.water2 

   -2  1 
   C     86.06000000    73.89000000    20.81000000
   C     86.94000000    74.03000000    19.58000000
   O     86.79000000    75.00000000    18.84000000
   H     85.08400000    73.50300000    20.51600000
   H     86.52600000    73.20100000    21.51500000
   H     85.93600000    74.86500000    21.28200000
   N     87.91000000    73.13000000    19.40000000
   C     88.70000000    72.96000000    18.20000000
   C     89.91000000    73.88000000    18.05000000
   O     90.84000000    73.50000000    17.34000000
   C     88.93000000    71.50000000    17.85000000
   C     89.00000000    71.27000000    16.35000000
   O     89.87000000    70.53000000    15.84000000
   O     88.17000000    71.87000000    15.63000000
   H     87.98000000    72.34000000    20.03000000
   H     88.04000000    73.42000000    17.46000000
   H     88.06000000    71.01000000    18.29000000
   H     89.80000000    71.10000000    18.37000000
   N     89.81000000    75.10000000    18.59000000
   C     90.96000000    75.96000000    18.76000000
   C     90.78000000    76.84000000    19.99000000
   O     89.65000000    77.00000000    20.45000000
   C     91.06000000    76.74000000    17.45000000
   H     88.97000000    75.35000000    19.08000000
   H     91.82000000    75.30000000    18.91000000
   H     90.15000000    77.27000000    17.17000000
   H     91.90000000    77.42000000    17.55000000
   H     91.34000000    76.12000000    16.60000000
   N     91.83000000    77.26000000    20.69000000
   C     93.23000000    77.23000000    20.31000000
   C     94.00000000    76.06000000    20.92000000
   O     93.62000000    75.59000000    21.99000000
   C     93.93000000    78.52000000    20.72000000
   C     93.22000000    79.79000000    20.27000000
   O     93.12000000    80.12000000    19.07000000
   O     92.64000000    80.41000000    21.19000000
   H     91.66000000    77.94000000    21.42000000
   H     93.36000000    77.07000000    19.24000000
   H     95.00000000    78.60000000    20.51000000
   H     93.93000000    78.53000000    21.81000000
   N     95.11000000    75.60000000    20.33000000
   C     95.85000000    74.46000000    20.84000000
   C     95.22000000    73.08000000    20.77000000
   O     94.38000000    72.88000000    19.89000000
   H     95.38000000    75.99000000    19.45000000
   H     96.09000000    74.64000000    21.89000000
   H     96.78000000    74.37000000    20.29000000
   N     95.61000000    72.08000000    21.56000000
   C     96.41000000    71.98000000    22.77000000
   C     96.10000000    72.88000000    23.95000000
   O     96.91000000    73.00000000    24.87000000
   C     96.47000000    70.48000000    23.08000000
   C     97.22000000    69.71000000    22.00000000
   N     98.53000000    69.90000000    21.89000000
   O     96.63000000    68.88000000    21.30000000
   H     95.25000000    71.17000000    21.31000000
   H     97.45000000    72.19000000    22.52000000
   H     95.50000000    70.03000000    23.28000000
   H     96.97000000    70.30000000    24.03000000
   H     98.94000000    70.62000000    22.47000000
   H     98.93000000    69.60000000    21.02000000
   N     94.87000000    73.38000000    24.09000000
   C     94.36000000    74.10000000    25.25000000
   C     95.03000000    75.44000000    25.49000000
   O     95.22000000    75.75000000    26.67000000
   H     94.30000000    73.35000000    23.25000000
   H     94.58000000    73.43000000    26.09000000
   H     93.29000000    74.27000000    25.11000000
   N     95.36000000    76.24000000    24.47000000
   C     96.07000000    77.50000000    24.49000000
   C     95.14000000    78.70000000    24.43000000
   O     95.32000000    79.60000000    23.61000000
   C     97.17000000    77.59000000    23.44000000
   C     98.32000000    78.57000000    23.71000000
   O     97.70000000    76.32000000    23.15000000
   H     94.90000000    76.00000000    23.60000000
   H     96.56000000    77.76000000    25.43000000
   H     96.68000000    77.87000000    22.51000000
   H     98.20000000    76.55000000    22.37000000
   H     99.23000000    77.98000000    23.86000000
   H     98.41000000    79.05000000    22.73000000
   H     98.04000000    79.12000000    24.60000000
   N     94.03000000    78.64000000    25.18000000
   C     92.95000000    79.61000000    25.19000000
   C     93.31000000    80.66000000    26.24000000
   O     94.26000000    80.64000000    27.01000000
   C     91.56000000    79.01000000    25.36000000
   C     91.10000000    78.32000000    24.07000000
   C     91.48000000    78.03000000    26.52000000
   C     89.65000000    77.87000000    23.94000000
   H     94.06000000    77.84000000    25.79000000
   H     92.91000000    80.19000000    24.27000000
   H     90.89000000    79.82000000    25.63000000
   H     91.76000000    77.46000000    23.99000000
   H     91.41000000    78.95000000    23.23000000
   H     90.44000000    77.76000000    26.69000000
   H     92.06000000    77.15000000    26.25000000
   H     91.93000000    78.61000000    27.33000000
   H     89.55000000    77.50000000    22.92000000
   H     89.46000000    77.02000000    24.59000000
   H     88.92000000    78.66000000    24.11000000
   N     92.54000000    81.75000000    26.22000000
   C     92.81000000    83.01000000    26.90000000
   C     91.52000000    83.54000000    27.51000000
   O     90.47000000    83.68000000    26.88000000
   C     93.61000000    84.03000000    26.08000000
   C     93.35000000    83.83000000    24.60000000
   O     94.07000000    83.10000000    23.89000000
   O     92.51000000    84.57000000    24.04000000
   H     91.79000000    81.76000000    25.55000000
   H     93.39000000    82.69000000    27.76000000
   H     94.66000000    84.07000000    26.34000000
   H     93.23000000    85.01000000    26.34000000
   N     91.57000000    83.94000000    28.78000000
   C     90.64000000    84.89000000    29.35000000
   C     89.23000000    84.34000000    29.33000000
   O     88.90000000    83.29000000    29.89000000
   C     91.12000000    85.34000000    30.73000000
   C     90.15000000    86.16000000    31.54000000
   C     89.23000000    85.48000000    32.33000000
   C     90.22000000    87.56000000    31.56000000
   C     88.45000000    86.19000000    33.26000000
   C     89.33000000    88.27000000    32.38000000
   C     88.40000000    87.58000000    33.17000000
   H     92.40000000    83.75000000    29.32000000
   H     90.66000000    85.81000000    28.76000000
   H     92.10000000    85.81000000    30.63000000
   H     91.33000000    84.44000000    31.31000000
   H     89.19000000    84.40000000    32.41000000
   H     90.94000000    88.11000000    30.97000000
   H     87.70000000    85.67000000    33.83000000
   H     89.36000000    89.35000000    32.39000000
   H     87.70000000    88.11000000    33.81000000
   N     88.33000000    85.10000000    28.70000000
   C     86.94000000    84.70000000    28.65000000
   C     86.61000000    83.60000000    27.64000000
   O     85.47000000    83.16000000    27.62000000
   C     86.17000000    85.95000000    28.23000000
   C     87.12000000    87.12000000    28.46000000
   C     88.48000000    86.46000000    28.22000000
   H     86.54000000    84.41000000    29.62000000
   H     85.93000000    85.90000000    27.17000000
   H     85.33000000    86.12000000    28.90000000
   H     86.93000000    87.92000000    27.75000000
   H     87.02000000    87.48000000    29.48000000
   H     88.55000000    86.38000000    27.14000000
   H     89.21000000    87.06000000    28.77000000
   N     87.53000000    83.08000000    26.82000000
   C     87.30000000    81.87000000    26.05000000
   C     87.00000000    80.62000000    26.87000000
   O     86.28000000    79.70000000    26.50000000
   C     88.54000000    81.51000000    25.24000000
   C     88.68000000    82.51000000    24.09000000
   C     89.92000000    82.25000000    23.26000000
   O     91.01000000    81.97000000    23.80000000
   O     89.97000000    82.44000000    22.02000000
   H     88.46000000    83.47000000    26.83000000
   H     86.41000000    82.04000000    25.45000000
   H     88.48000000    80.53000000    24.78000000
   H     89.44000000    81.52000000    25.85000000
   H     88.82000000    83.46000000    24.62000000
   H     87.80000000    82.47000000    23.45000000
   N     87.74000000    80.52000000    27.98000000
   C     87.51000000    79.49000000    28.97000000
   H     86.48700000    79.12500000    28.88200000
   H     88.20500000    78.66600000    28.80600000
   H     87.66400000    79.90300000    29.96700000
   H     88.46000000    81.22000000    28.10000000
  Ca     92.54000000    82.90000000    21.93000000
   O     91.17000000    85.08000000    20.92000000
   H     91.24000000    85.15000000    19.97000000
   H     90.26000000    85.29000000    21.11000000
   O     92.76000000    82.75000000    19.19000000
   H     92.80000000    81.79000000    19.22000000
   H     92.71000000    82.95000000    18.26000000

Ca 1.00



