%chk=loop3.holoCaM-CaMKII.run22.water2.chk
%nprocshared=20
%mem=10GB
%nosave
#b3lyp/svp scf=(tight,noincore,xqc) Test 
#IOP(5/87=12) Density=Current Pop=(MK,readradii) iop(6/33=2) iop(6/42=6)

loop3.holoCaM-CaMKII.run22.water2 

   0  1 
   C     77.36000000    51.47000000    28.32000000
   C     76.33000000    50.78000000    29.21000000
   O     76.68000000    49.70000000    29.68000000
   H     78.29100000    50.90300000    28.33600000
   H     76.98300000    51.52000000    27.29800000
   H     77.54300000    52.47900000    28.69000000
   N     75.11000000    51.28000000    29.42000000
   C     74.25000000    50.82000000    30.48000000
   C     73.17000000    49.91000000    29.91000000
   O     72.41000000    50.39000000    29.08000000
   C     73.74000000    52.01000000    31.29000000
   C     72.75000000    51.70000000    32.41000000
   O     72.76000000    50.56000000    32.93000000
   O     72.05000000    52.61000000    32.88000000
   H     74.94000000    52.18000000    28.99000000
   H     74.70000000    50.14000000    31.20000000
   H     73.24000000    52.67000000    30.59000000
   H     74.54000000    52.56000000    31.79000000
   N     73.05000000    48.66000000    30.36000000
   C     72.26000000    47.60000000    29.76000000
   C     70.85000000    47.48000000    30.31000000
   O     69.91000000    47.29000000    29.54000000
   C     73.06000000    46.31000000    29.90000000
   C     74.22000000    46.08000000    28.94000000
   C     74.80000000    44.68000000    29.10000000
   C     75.79000000    44.61000000    27.93000000
   N     76.39000000    43.28000000    27.78000000
   H     73.66000000    48.27000000    31.06000000
   H     72.07000000    47.78000000    28.70000000
   H     72.21000000    45.65000000    29.74000000
   H     73.41000000    46.20000000    30.93000000
   H     74.97000000    46.82000000    29.21000000
   H     73.75000000    46.17000000    27.96000000
   H     73.99000000    43.96000000    29.02000000
   H     75.35000000    44.45000000    30.01000000
   H     76.52000000    45.40000000    28.12000000
   H     75.26000000    44.94000000    27.04000000
   H     75.68000000    42.60000000    27.56000000
   H     77.23000000    43.30000000    27.21000000
   H     76.62000000    43.02000000    28.72000000
   N     70.67000000    47.67000000    31.62000000
   C     69.38000000    47.75000000    32.25000000
   C     68.85000000    49.18000000    32.28000000
   O     67.68000000    49.41000000    32.59000000
   C     69.35000000    47.18000000    33.67000000
   C     70.49000000    47.34000000    34.66000000
   O     71.40000000    48.14000000    34.35000000
   O     70.51000000    46.71000000    35.73000000
   H     71.52000000    47.78000000    32.15000000
   H     68.66000000    47.17000000    31.67000000
   H     69.22000000    46.10000000    33.57000000
   H     68.44000000    47.55000000    34.15000000
   N     69.61000000    50.14000000    31.77000000
   C     69.19000000    51.52000000    31.73000000
   C     69.00000000    52.17000000    33.10000000
   O     68.05000000    52.93000000    33.25000000
   H     70.55000000    49.97000000    31.43000000
   H     68.30000000    51.60000000    31.11000000
   H     69.97000000    52.11000000    31.23000000
   N     69.80000000    51.79000000    34.10000000
   C     69.62000000    51.94000000    35.53000000
   C     70.35000000    53.17000000    36.06000000
   O     70.36000000    53.41000000    37.26000000
   C     69.73000000    50.65000000    36.35000000
   C     71.12000000    50.32000000    36.87000000
   N     71.31000000    49.89000000    38.12000000
   O     72.12000000    50.50000000    36.17000000
   H     70.58000000    51.23000000    33.80000000
   H     68.58000000    52.23000000    35.70000000
   H     69.30000000    49.88000000    35.71000000
   H     69.06000000    50.58000000    37.20000000
   H     70.56000000    50.12000000    38.76000000
   H     72.27000000    49.86000000    38.41000000
   N     70.80000000    54.09000000    35.20000000
   C     71.50000000    55.30000000    35.59000000
   C     72.83000000    54.90000000    36.20000000
   O     73.45000000    55.84000000    36.70000000
   H     71.03000000    53.77000000    34.27000000
   H     70.99000000    55.82000000    36.41000000
   H     71.66000000    55.99000000    34.76000000
   N     73.32000000    53.66000000    36.07000000
   C     74.60000000    53.24000000    36.59000000
   C     75.39000000    52.19000000    35.82000000
   O     74.79000000    51.43000000    35.07000000
   C     74.44000000    52.70000000    38.01000000
   C     73.84000000    53.59000000    39.07000000
   C     74.73000000    54.35000000    39.84000000
   C     72.53000000    53.40000000    39.52000000
   C     74.29000000    54.99000000    41.01000000
   C     72.03000000    54.04000000    40.67000000
   C     72.95000000    54.82000000    41.39000000
   O     72.46000000    55.55000000    42.44000000
   H     72.89000000    52.87000000    35.61000000
   H     75.28000000    54.09000000    36.52000000
   H     75.39000000    52.27000000    38.31000000
   H     73.84000000    51.79000000    37.89000000
   H     75.74000000    54.43000000    39.47000000
   H     71.85000000    52.76000000    38.98000000
   H     74.90000000    55.55000000    41.69000000
   H     71.02000000    53.94000000    41.03000000
   H     71.53000000    55.44000000    42.62000000
   N     76.72000000    52.26000000    35.82000000
   C     77.62000000    51.39000000    35.09000000
   C     78.51000000    50.61000000    36.04000000
   O     79.17000000    51.13000000    36.94000000
   C     78.51000000    52.27000000    34.22000000
   C     77.72000000    53.02000000    33.15000000
   C     79.58000000    51.40000000    33.56000000
   C     78.50000000    54.13000000    32.46000000
   H     77.11000000    53.08000000    36.28000000
   H     77.13000000    50.69000000    34.42000000
   H     78.92000000    53.11000000    34.78000000
   H     76.80000000    53.38000000    33.61000000
   H     77.32000000    52.33000000    32.40000000
   H     80.21000000    50.92000000    34.30000000
   H     79.14000000    50.54000000    33.04000000
   H     80.25000000    51.96000000    32.92000000
   H     77.86000000    54.83000000    31.91000000
   H     79.20000000    54.66000000    33.10000000
   H     79.10000000    53.49000000    31.81000000
   N     78.46000000    49.30000000    35.83000000
   C     79.35000000    48.29000000    36.38000000
   C     80.59000000    47.98000000    35.55000000
   O     80.61000000    48.17000000    34.34000000
   C     78.50000000    47.04000000    36.60000000
   O     78.00000000    46.48000000    35.41000000
   H     77.78000000    49.02000000    35.14000000
   H     79.70000000    48.69000000    37.34000000
   H     77.68000000    47.24000000    37.29000000
   H     79.15000000    46.32000000    37.09000000
   H     77.43000000    47.16000000    35.02000000
   N     81.56000000    47.31000000    36.16000000
   C     82.65000000    46.82000000    35.34000000
   C     82.45000000    45.92000000    34.13000000
   O     83.16000000    46.05000000    33.14000000
   C     83.64000000    46.22000000    36.35000000
   H     81.53000000    47.02000000    37.13000000
   H     83.14000000    47.73000000    34.99000000
   H     83.81000000    46.99000000    37.11000000
   H     83.23000000    45.31000000    36.79000000
   H     84.63000000    46.04000000    35.93000000
   N     81.42000000    45.09000000    34.29000000
   C     81.02000000    44.14000000    33.27000000
   C     80.41000000    44.84000000    32.06000000
   O     80.56000000    44.42000000    30.92000000
   C     80.04000000    43.13000000    33.86000000
   H     80.94000000    45.07000000    35.18000000
   H     81.88000000    43.67000000    32.80000000
   H     79.22000000    43.72000000    34.26000000
   H     79.58000000    42.52000000    33.07000000
   H     80.62000000    42.42000000    34.46000000
   N     79.74000000    45.97000000    32.33000000
   C     79.27000000    46.84000000    31.28000000
   C     80.33000000    47.72000000    30.63000000
   O     80.28000000    47.77000000    29.40000000
   C     78.21000000    47.79000000    31.84000000
   C     76.89000000    47.06000000    32.07000000
   C     75.93000000    47.83000000    32.97000000
   O     74.79000000    48.06000000    32.50000000
   O     76.14000000    48.17000000    34.15000000
   H     79.66000000    46.22000000    33.31000000
   H     78.79000000    46.27000000    30.48000000
   H     78.00000000    48.66000000    31.21000000
   H     78.59000000    48.06000000    32.82000000
   H     77.17000000    46.14000000    32.58000000
   H     76.43000000    46.84000000    31.11000000
   N     81.26000000    48.27000000    31.41000000
   C     82.45000000    48.95000000    30.94000000
   H     83.27400000    48.23900000    30.87900000
   H     82.26200000    49.37200000    29.95300000
   H     82.71100000    49.74900000    31.63400000
   H     81.11000000    48.17000000    32.40000000
  Ca     73.73000000    49.05000000    34.66000000
   O     73.19000000    46.67000000    36.12000000
   H     72.24000000    46.75000000    36.12000000
   H     73.36000000    45.83000000    36.53000000
   O     74.81000000    49.03000000    37.05000000
   H     74.39000000    49.20000000    37.89000000
   H     75.27000000    48.20000000    37.17000000

Ca 1.00



