%chk=loop3.holoCaM.run10.water2.chk
%nprocshared=20
%mem=10GB
%nosave
#b3lyp/svp scf=(tight,noincore,xqc) Test 
#IOP(5/87=12) Density=Current Pop=(MK,readradii) iop(6/33=2) iop(6/42=6)

loop3.holoCaM.run10.water2 

   0  1 
   C     38.54000000    43.56000000    24.83000000
   C     39.21000000    42.53000000    25.73000000
   O     38.81000000    42.31000000    26.87000000
   H     37.62400000    43.91300000    25.30300000
   H     39.21500000    44.40100000    24.67400000
   H     38.30000000    43.10300000    23.87000000
   N     40.24000000    41.81000000    25.30000000
   C     40.85000000    40.72000000    26.04000000
   C     41.83000000    41.24000000    27.09000000
   O     43.02000000    41.39000000    26.84000000
   C     41.51000000    39.79000000    25.02000000
   C     42.03000000    38.48000000    25.58000000
   O     41.84000000    38.16000000    26.78000000
   O     42.70000000    37.81000000    24.76000000
   H     40.58000000    41.96000000    24.36000000
   H     40.10000000    40.13000000    26.56000000
   H     42.40000000    40.28000000    24.63000000
   H     40.82000000    39.64000000    24.19000000
   N     41.28000000    41.71000000    28.21000000
   C     41.98000000    42.38000000    29.29000000
   C     43.24000000    41.71000000    29.81000000
   O     44.28000000    42.34000000    29.95000000
   C     41.00000000    42.60000000    30.44000000
   C     39.80000000    43.46000000    30.06000000
   C     38.95000000    43.63000000    31.31000000
   C     37.76000000    44.58000000    31.17000000
   N     36.78000000    44.50000000    32.27000000
   H     40.29000000    41.55000000    28.32000000
   H     42.25000000    43.36000000    28.90000000
   H     41.50000000    43.20000000    31.20000000
   H     40.71000000    41.66000000    30.90000000
   H     39.16000000    42.93000000    29.35000000
   H     40.09000000    44.44000000    29.69000000
   H     39.64000000    44.01000000    32.07000000
   H     38.52000000    42.69000000    31.67000000
   H     37.19000000    44.33000000    30.28000000
   H     38.12000000    45.61000000    31.20000000
   H     37.22000000    44.74000000    33.15000000
   H     35.97000000    45.10000000    32.17000000
   H     36.44000000    43.56000000    32.35000000
   N     43.20000000    40.37000000    29.79000000
   C     44.28000000    39.46000000    30.12000000
   C     45.11000000    38.99000000    28.93000000
   O     46.24000000    38.56000000    29.18000000
   C     43.85000000    38.40000000    31.13000000
   C     42.36000000    38.09000000    31.06000000
   O     41.60000000    37.87000000    32.03000000
   O     41.93000000    37.91000000    29.90000000
   H     42.34000000    39.97000000    29.44000000
   H     45.03000000    40.04000000    30.64000000
   H     44.05000000    38.75000000    32.15000000
   H     44.39000000    37.47000000    30.99000000
   N     44.63000000    39.11000000    27.70000000
   C     45.29000000    38.71000000    26.47000000
   C     45.44000000    37.20000000    26.57000000
   O     46.55000000    36.72000000    26.40000000
   H     43.74000000    39.58000000    27.61000000
   H     46.26000000    39.17000000    26.30000000
   H     44.68000000    38.94000000    25.59000000
   N     44.43000000    36.43000000    26.98000000
   C     44.39000000    34.99000000    27.08000000
   C     43.62000000    34.28000000    25.98000000
   O     43.18000000    33.13000000    26.08000000
   C     44.01000000    34.62000000    28.51000000
   C     42.51000000    34.55000000    28.77000000
   N     41.91000000    33.72000000    29.62000000
   O     41.75000000    35.23000000    28.08000000
   H     43.56000000    36.90000000    27.20000000
   H     45.41000000    34.61000000    26.96000000
   H     44.51000000    35.28000000    29.22000000
   H     44.42000000    33.63000000    28.74000000
   H     42.49000000    33.05000000    30.10000000
   H     40.90000000    33.74000000    29.73000000
   N     43.37000000    35.04000000    24.91000000
   C     43.00000000    34.49000000    23.62000000
   C     41.50000000    34.32000000    23.41000000
   O     41.11000000    33.57000000    22.52000000
   H     43.46000000    36.05000000    24.91000000
   H     43.40000000    33.49000000    23.49000000
   H     43.37000000    35.17000000    22.85000000
   N     40.72000000    34.94000000    24.31000000
   C     39.30000000    34.80000000    24.56000000
   C     38.68000000    36.12000000    24.99000000
   O     39.27000000    36.85000000    25.79000000
   C     39.01000000    33.69000000    25.57000000
   C     39.28000000    32.25000000    25.22000000
   C     40.13000000    31.52000000    26.06000000
   C     38.73000000    31.62000000    24.10000000
   C     40.48000000    30.21000000    25.70000000
   C     39.01000000    30.28000000    23.80000000
   C     39.88000000    29.54000000    24.62000000
   O     40.16000000    28.24000000    24.30000000
   H     41.26000000    35.59000000    24.85000000
   H     38.79000000    34.52000000    23.63000000
   H     37.94000000    33.72000000    25.76000000
   H     39.64000000    33.96000000    26.42000000
   H     40.57000000    31.93000000    26.96000000
   H     38.14000000    32.20000000    23.40000000
   H     41.09000000    29.61000000    26.36000000
   H     38.63000000    29.84000000    22.89000000
   H     39.43000000    27.84000000    23.82000000
   N     37.44000000    36.37000000    24.56000000
   C     36.65000000    37.49000000    25.02000000
   C     35.30000000    36.91000000    25.44000000
   O     34.59000000    36.14000000    24.80000000
   C     36.50000000    38.57000000    23.95000000
   C     37.75000000    39.20000000    23.34000000
   C     35.66000000    39.76000000    24.39000000
   C     37.58000000    39.69000000    21.90000000
   H     36.97000000    35.67000000    24.00000000
   H     37.15000000    37.89000000    25.89000000
   H     36.04000000    38.05000000    23.11000000
   H     38.53000000    38.44000000    23.32000000
   H     38.10000000    40.03000000    23.96000000
   H     35.46000000    40.54000000    23.65000000
   H     34.69000000    39.46000000    24.79000000
   H     36.09000000    40.25000000    25.27000000
   H     37.40000000    38.93000000    21.14000000
   H     36.74000000    40.38000000    21.89000000
   H     38.46000000    40.33000000    21.81000000
   N     34.95000000    37.38000000    26.64000000
   C     33.77000000    37.16000000    27.45000000
   C     32.67000000    38.18000000    27.19000000
   O     32.95000000    39.24000000    26.63000000
   C     34.14000000    36.97000000    28.92000000
   O     34.42000000    38.23000000    29.47000000
   H     35.62000000    38.01000000    27.07000000
   H     33.51000000    36.19000000    27.03000000
   H     34.97000000    36.26000000    28.97000000
   H     33.33000000    36.46000000    29.43000000
   H     34.55000000    38.09000000    30.41000000
   N     31.49000000    37.85000000    27.72000000
   C     30.40000000    38.81000000    27.79000000
   C     30.75000000    40.03000000    28.63000000
   O     30.57000000    41.14000000    28.14000000
   C     29.16000000    38.06000000    28.29000000
   H     31.31000000    36.89000000    27.94000000
   H     30.18000000    39.09000000    26.77000000
   H     28.77000000    37.44000000    27.48000000
   H     29.20000000    37.43000000    29.17000000
   H     28.46000000    38.83000000    28.60000000
   N     31.28000000    39.83000000    29.84000000
   C     31.71000000    40.92000000    30.69000000
   C     32.99000000    41.61000000    30.23000000
   O     33.19000000    42.80000000    30.45000000
   C     31.82000000    40.42000000    32.12000000
   H     31.50000000    38.90000000    30.17000000
   H     30.94000000    41.68000000    30.57000000
   H     30.94000000    40.07000000    32.67000000
   H     32.53000000    39.59000000    32.15000000
   H     32.26000000    41.21000000    32.74000000
   N     33.75000000    41.01000000    29.31000000
   C     34.72000000    41.73000000    28.51000000
   C     34.12000000    42.61000000    27.42000000
   O     34.73000000    43.65000000    27.19000000
   C     35.86000000    40.81000000    28.09000000
   C     36.92000000    40.64000000    29.18000000
   C     37.99000000    39.61000000    28.85000000
   O     37.65000000    38.52000000    28.35000000
   O     39.18000000    39.75000000    29.20000000
   H     33.74000000    40.02000000    29.12000000
   H     35.11000000    42.48000000    29.20000000
   H     36.41000000    41.28000000    27.28000000
   H     35.56000000    39.84000000    27.69000000
   H     36.44000000    40.20000000    30.06000000
   H     37.43000000    41.56000000    29.46000000
   N     32.99000000    42.35000000    26.75000000
   C     32.33000000    43.29000000    25.86000000
   H     31.41500000    43.65300000    26.32900000
   H     32.99400000    44.13100000    25.66200000
   H     32.08400000    42.79200000    24.92200000
   H     32.48000000    41.52000000    27.02000000
  Ca     39.97000000    37.26000000    28.38000000
   O     39.63000000    36.15000000    30.65000000
   H     38.82000000    36.08000000    31.16000000
   H     40.30000000    36.35000000    31.30000000
   O     38.31000000    35.15000000    28.18000000
   H     37.37000000    35.00000000    28.25000000
   H     38.70000000    34.31000000    28.41000000

Ca 1.00



