%chk=loop3.apoCaM-CA-Ng.Init293.run6.water6.chk
%nprocshared=20
%mem=10GB
%nosave
#b3lyp/svp scf=(tight,noincore,xqc) Test 
#IOP(5/87=12) Density=Current Pop=(MK,readradii) iop(6/33=2) iop(6/42=6)

loop3.apoCaM-CA-Ng.Init293.run6.water6 

   0  1 
   C     48.96000000    62.76000000    34.58000000
   C     48.56000000    64.15000000    35.07000000
   O     48.62000000    65.10000000    34.30000000
   H     49.94400000    62.50600000    34.97400000
   H     48.23000000    62.02800000    34.92600000
   H     48.99300000    62.75400000    33.49100000
   N     48.35000000    64.32000000    36.38000000
   C     48.68000000    65.60000000    36.97000000
   C     47.54000000    66.60000000    36.78000000
   O     47.80000000    67.49000000    35.98000000
   C     49.14000000    65.53000000    38.42000000
   C     50.30000000    64.56000000    38.65000000
   O     51.01000000    64.75000000    39.66000000
   O     50.53000000    63.60000000    37.88000000
   H     48.37000000    63.48000000    36.94000000
   H     49.51000000    66.03000000    36.41000000
   H     48.28000000    65.24000000    39.01000000
   H     49.43000000    66.52000000    38.76000000
   N     46.35000000    66.36000000    37.32000000
   C     45.15000000    66.96000000    36.76000000
   C     45.06000000    68.45000000    37.07000000
   O     44.24000000    69.14000000    36.47000000
   C     43.93000000    66.25000000    37.35000000
   C     43.63000000    66.72000000    38.77000000
   C     42.78000000    65.75000000    39.60000000
   C     42.42000000    66.48000000    40.88000000
   N     43.52000000    66.83000000    41.79000000
   H     46.20000000    65.45000000    37.75000000
   H     45.14000000    66.80000000    35.68000000
   H     44.07000000    65.18000000    37.21000000
   H     43.05000000    66.49000000    36.74000000
   H     43.13000000    67.68000000    38.71000000
   H     44.61000000    66.89000000    39.20000000
   H     43.38000000    64.84000000    39.72000000
   H     41.89000000    65.57000000    39.00000000
   H     41.87000000    65.68000000    41.39000000
   H     41.75000000    67.31000000    40.64000000
   H     43.19000000    67.21000000    42.66000000
   H     44.10000000    66.04000000    42.04000000
   H     44.03000000    67.59000000    41.38000000
   N     45.83000000    68.93000000    38.04000000
   C     45.94000000    70.29000000    38.53000000
   C     47.20000000    70.70000000    39.27000000
   O     48.04000000    69.86000000    39.60000000
   C     44.67000000    70.49000000    39.36000000
   C     44.43000000    69.56000000    40.53000000
   O     45.33000000    68.76000000    40.86000000
   O     43.27000000    69.45000000    40.99000000
   H     46.40000000    68.24000000    38.52000000
   H     45.92000000    70.96000000    37.67000000
   H     43.79000000    70.55000000    38.71000000
   H     44.87000000    71.51000000    39.69000000
   N     47.42000000    72.01000000    39.43000000
   C     48.43000000    72.54000000    40.33000000
   C     48.19000000    72.13000000    41.78000000
   O     47.07000000    72.01000000    42.26000000
   H     46.87000000    72.66000000    38.89000000
   H     48.47000000    73.62000000    40.32000000
   H     49.40000000    72.21000000    39.95000000
   N     49.32000000    71.71000000    42.36000000
   C     49.34000000    71.17000000    43.70000000
   C     50.26000000    71.98000000    44.60000000
   O     50.27000000    71.80000000    45.82000000
   C     49.90000000    69.75000000    43.61000000
   C     49.09000000    68.84000000    42.69000000
   N     47.90000000    68.40000000    43.09000000
   O     49.49000000    68.46000000    41.59000000
   H     50.17000000    71.83000000    41.84000000
   H     48.36000000    71.19000000    44.19000000
   H     49.99000000    69.27000000    44.58000000
   H     50.88000000    69.87000000    43.14000000
   H     47.58000000    68.61000000    44.02000000
   H     47.46000000    67.89000000    42.33000000
   N     51.16000000    72.83000000    44.11000000
   C     52.20000000    73.52000000    44.84000000
   C     53.12000000    72.59000000    45.63000000
   O     53.61000000    71.53000000    45.24000000
   H     51.16000000    72.92000000    43.10000000
   H     51.71000000    74.05000000    45.66000000
   H     52.76000000    74.18000000    44.18000000
   N     53.26000000    72.99000000    46.89000000
   C     53.93000000    72.31000000    47.98000000
   C     53.41000000    70.92000000    48.31000000
   O     53.95000000    70.18000000    49.13000000
   C     55.45000000    72.35000000    47.80000000
   C     56.36000000    72.13000000    48.98000000
   C     56.44000000    73.19000000    49.89000000
   C     57.20000000    71.01000000    49.11000000
   C     57.34000000    73.13000000    50.96000000
   C     58.06000000    70.89000000    50.22000000
   C     58.15000000    71.99000000    51.09000000
   O     59.10000000    71.98000000    52.07000000
   H     52.62000000    73.72000000    47.18000000
   H     53.72000000    72.87000000    48.89000000
   H     55.62000000    73.34000000    47.38000000
   H     55.80000000    71.61000000    47.09000000
   H     55.93000000    74.12000000    49.71000000
   H     57.07000000    70.14000000    48.50000000
   H     57.35000000    73.98000000    51.63000000
   H     58.71000000    70.03000000    50.26000000
   H     59.11000000    72.75000000    52.63000000
   N     52.36000000    70.43000000    47.65000000
   C     51.68000000    69.16000000    47.83000000
   C     50.87000000    69.16000000    49.12000000
   O     49.67000000    68.87000000    49.05000000
   C     52.50000000    67.90000000    47.57000000
   C     53.36000000    67.87000000    46.32000000
   C     51.60000000    66.68000000    47.73000000
   C     52.63000000    68.10000000    45.00000000
   H     52.02000000    70.90000000    46.82000000
   H     50.85000000    69.07000000    47.12000000
   H     53.12000000    67.87000000    48.47000000
   H     53.96000000    66.96000000    46.29000000
   H     54.17000000    68.60000000    46.41000000
   H     50.84000000    66.72000000    46.94000000
   H     52.26000000    65.84000000    47.52000000
   H     51.19000000    66.72000000    48.74000000
   H     52.43000000    69.16000000    45.15000000
   H     53.23000000    67.88000000    44.11000000
   H     51.66000000    67.61000000    44.95000000
   N     51.40000000    69.48000000    50.30000000
   C     50.59000000    69.87000000    51.43000000
   C     49.89000000    68.72000000    52.14000000
   O     49.10000000    69.00000000    53.04000000
   C     51.44000000    70.76000000    52.34000000
   O     52.03000000    71.80000000    51.58000000
   H     52.38000000    69.58000000    50.48000000
   H     49.79000000    70.54000000    51.12000000
   H     52.26000000    70.15000000    52.71000000
   H     50.86000000    71.06000000    53.21000000
   H     51.34000000    72.34000000    51.19000000
   N     50.16000000    67.45000000    51.84000000
   C     49.30000000    66.38000000    52.32000000
   C     47.81000000    66.58000000    52.07000000
   O     46.96000000    65.88000000    52.62000000
   C     49.53000000    66.05000000    53.79000000
   H     50.83000000    67.29000000    51.10000000
   H     49.66000000    65.45000000    51.88000000
   H     50.53000000    65.71000000    54.05000000
   H     49.27000000    66.91000000    54.41000000
   H     48.95000000    65.19000000    54.12000000
   N     47.48000000    67.43000000    51.10000000
   C     46.15000000    67.85000000    50.71000000
   C     45.65000000    67.13000000    49.46000000
   O     46.46000000    66.93000000    48.56000000
   C     46.14000000    69.34000000    50.38000000
   H     48.32000000    67.75000000    50.64000000
   H     45.52000000    67.45000000    51.51000000
   H     46.54000000    69.94000000    51.20000000
   H     46.86000000    69.57000000    49.60000000
   H     45.15000000    69.57000000    49.98000000
   N     44.36000000    66.81000000    49.37000000
   C     43.73000000    66.24000000    48.20000000
   C     44.18000000    64.88000000    47.69000000
   O     44.02000000    64.58000000    46.50000000
   C     43.58000000    67.29000000    47.11000000
   C     42.31000000    67.10000000    46.28000000
   C     42.15000000    68.20000000    45.24000000
   O     42.06000000    69.40000000    45.59000000
   O     42.11000000    67.91000000    44.03000000
   H     43.79000000    67.05000000    50.17000000
   H     42.71000000    66.20000000    48.58000000
   H     44.42000000    67.29000000    46.41000000
   H     43.59000000    68.31000000    47.49000000
   H     41.47000000    67.20000000    46.97000000
   H     42.31000000    66.12000000    45.80000000
   N     44.81000000    64.10000000    48.57000000
   C     45.50000000    62.89000000    48.18000000
   H     46.47100000    62.85100000    48.67400000
   H     44.90800000    62.02300000    48.47400000
   H     45.64200000    62.88400000    47.09900000
   H     45.00000000    64.54000000    49.46000000
  Ca     42.32000000    70.51000000    43.10000000
   O     39.84000000    70.72000000    44.29000000
   H     39.07000000    70.95000000    43.78000000
   H     39.49000000    70.25000000    45.05000000
   O     41.38000000    72.42000000    41.55000000
   H     41.54000000    72.36000000    40.61000000
   H     40.80000000    73.18000000    41.65000000
   O     44.83000000    69.74000000    43.84000000
   H     45.67000000    69.57000000    43.41000000
   H     45.07000000    70.12000000    44.69000000
   O     44.21000000    72.28000000    42.36000000
   H     44.14000000    73.16000000    41.98000000
   H     45.12000000    72.02000000    42.21000000
   O     40.24000000    69.62000000    41.36000000
   H     39.31000000    69.51000000    41.15000000
   H     40.70000000    69.31000000    40.58000000
   O     42.69000000    72.41000000    44.97000000
   H     43.36000000    73.04000000    44.69000000
   H     42.46000000    72.69000000    45.86000000

Ca 1.00



