%chk=loop4.holoCaM-CaMKII.run53.water2.chk
%nprocshared=20
%mem=10GB
%nosave
#b3lyp/svp scf=(tight,noincore,xqc) Test 
#IOP(5/87=12) Density=Current Pop=(MK,readradii) iop(6/33=2) iop(6/42=6)

loop4.holoCaM-CaMKII.run53.water2 

   -3  1 
   C     40.01000000    71.12000000     7.27000000
   C     41.27000000    70.99000000     8.12000000
   O     41.12000000    71.20000000     9.32000000
   H     39.24200000    71.64600000     7.83800000
   H     40.23900000    71.68000000     6.36400000
   H     39.64700000    70.12700000     7.00300000
   N     42.44000000    70.71000000     7.55000000
   C     43.71000000    70.94000000     8.22000000
   C     43.95000000    72.39000000     8.59000000
   O     43.97000000    73.22000000     7.68000000
   C     44.84000000    70.34000000     7.38000000
   C     46.19000000    70.45000000     8.07000000
   O     47.15000000    70.36000000     7.27000000
   O     46.28000000    70.58000000     9.31000000
   H     42.40000000    70.42000000     6.59000000
   H     43.72000000    70.34000000     9.13000000
   H     44.78000000    70.88000000     6.44000000
   H     44.70000000    69.28000000     7.14000000
   N     44.29000000    72.68000000     9.85000000
   C     44.28000000    74.03000000    10.37000000
   C     45.70000000    74.55000000    10.54000000
   O     45.97000000    75.72000000    10.27000000
   C     43.44000000    74.16000000    11.64000000
   C     42.08000000    73.48000000    11.51000000
   C     43.18000000    75.62000000    11.97000000
   C     41.12000000    73.70000000    12.67000000
   H     44.43000000    71.94000000    10.52000000
   H     43.83000000    74.74000000     9.67000000
   H     44.00000000    73.67000000    12.44000000
   H     42.23000000    72.40000000    11.50000000
   H     41.59000000    73.70000000    10.56000000
   H     44.06000000    76.25000000    11.84000000
   H     42.44000000    76.06000000    11.30000000
   H     42.83000000    75.77000000    12.99000000
   H     40.85000000    74.75000000    12.82000000
   H     40.21000000    73.14000000    12.47000000
   H     41.66000000    73.43000000    13.58000000
   N     46.54000000    73.65000000    11.07000000
   C     47.92000000    73.98000000    11.35000000
   C     48.86000000    73.67000000    10.19000000
   O     49.99000000    74.15000000    10.18000000
   C     48.48000000    73.47000000    12.68000000
   C     48.12000000    72.01000000    12.93000000
   O     47.86000000    71.25000000    11.98000000
   O     48.05000000    71.51000000    14.08000000
   H     46.21000000    72.70000000    11.04000000
   H     48.01000000    75.05000000    11.54000000
   H     48.05000000    74.02000000    13.51000000
   H     49.57000000    73.55000000    12.77000000
   N     48.38000000    72.95000000     9.18000000
   C     49.08000000    72.79000000     7.92000000
   C     50.11000000    71.67000000     7.94000000
   O     51.23000000    71.97000000     7.55000000
   H     47.47000000    72.55000000     9.37000000
   H     49.53000000    73.75000000     7.66000000
   H     48.31000000    72.62000000     7.17000000
   N     49.76000000    70.41000000     8.24000000
   C     50.56000000    69.20000000     8.28000000
   C     50.18000000    68.09000000     7.32000000
   O     50.86000000    67.07000000     7.35000000
   C     50.63000000    68.78000000     9.75000000
   C     49.29000000    68.59000000    10.45000000
   O     48.31000000    68.26000000     9.75000000
   O     49.15000000    68.58000000    11.69000000
   H     48.80000000    70.24000000     8.46000000
   H     51.56000000    69.40000000     7.89000000
   H     51.21000000    69.51000000    10.32000000
   H     51.23000000    67.88000000     9.88000000
   N     49.11000000    68.24000000     6.53000000
   C     48.58000000    67.14000000     5.75000000
   C     47.69000000    66.13000000     6.47000000
   O     47.48000000    65.05000000     5.92000000
   H     48.70000000    69.15000000     6.63000000
   H     49.44000000    66.51000000     5.49000000
   H     47.92000000    67.52000000     4.97000000
   N     47.22000000    66.48000000     7.67000000
   C     46.42000000    65.64000000     8.53000000
   C     45.36000000    66.43000000     9.29000000
   O     45.39000000    67.65000000     9.43000000
   C     47.27000000    64.81000000     9.49000000
   C     48.21000000    63.74000000     8.95000000
   C     47.37000000    62.54000000     8.53000000
   N     46.82000000    62.50000000     7.31000000
   O     47.03000000    61.61000000     9.24000000
   H     47.68000000    67.29000000     8.05000000
   H     45.87000000    64.95000000     7.88000000
   H     46.61000000    64.48000000    10.29000000
   H     47.88000000    65.52000000    10.04000000
   H     48.89000000    63.41000000     9.74000000
   H     48.78000000    64.12000000     8.11000000
   H     46.99000000    63.30000000     6.71000000
   H     46.22000000    61.73000000     7.05000000
   N     44.30000000    65.69000000     9.65000000
   C     43.05000000    66.29000000    10.04000000
   C     42.57000000    65.65000000    11.34000000
   O     42.12000000    64.51000000    11.24000000
   C     41.99000000    66.27000000     8.94000000
   C     40.77000000    67.07000000     9.38000000
   C     42.51000000    67.07000000     7.75000000
   H     44.33000000    64.73000000     9.33000000
   H     43.22000000    67.34000000    10.30000000
   H     41.84000000    65.26000000     8.55000000
   H     41.13000000    68.08000000     9.59000000
   H     40.12000000    67.11000000     8.51000000
   H     40.36000000    66.60000000    10.28000000
   H     43.16000000    66.36000000     7.23000000
   H     41.68000000    67.15000000     7.05000000
   H     42.99000000    67.99000000     8.09000000
   N     42.91000000    66.16000000    12.52000000
   C     42.56000000    65.62000000    13.82000000
   C     41.09000000    65.81000000    14.18000000
   O     40.36000000    66.48000000    13.45000000
   C     43.48000000    66.33000000    14.80000000
   C     43.37000000    65.99000000    16.28000000
   N     43.37000000    64.69000000    16.59000000
   O     43.08000000    66.82000000    17.14000000
   H     43.23000000    67.12000000    12.57000000
   H     42.80000000    64.55000000    13.77000000
   H     43.24000000    67.37000000    14.63000000
   H     44.50000000    66.18000000    14.43000000
   H     43.83000000    64.07000000    15.94000000
   H     43.14000000    64.45000000    17.54000000
   N     40.69000000    65.13000000    15.25000000
   C     39.44000000    65.32000000    15.96000000
   C     39.12000000    66.75000000    16.38000000
   O     38.06000000    67.25000000    16.00000000
   C     39.25000000    64.34000000    17.11000000
   C     37.89000000    64.69000000    17.65000000
   C     36.67000000    64.49000000    16.99000000
   C     37.79000000    65.24000000    18.93000000
   C     35.46000000    64.60000000    17.68000000
   C     36.59000000    65.36000000    19.64000000
   C     35.37000000    65.00000000    19.03000000
   O     34.13000000    65.09000000    19.58000000
   H     41.32000000    64.46000000    15.68000000
   H     38.73000000    65.05000000    15.18000000
   H     40.10000000    64.46000000    17.78000000
   H     39.35000000    63.31000000    16.77000000
   H     36.59000000    64.22000000    15.95000000
   H     38.72000000    65.39000000    19.46000000
   H     34.56000000    64.30000000    17.16000000
   H     36.50000000    65.72000000    20.65000000
   H     34.12000000    65.59000000    20.41000000
   N     40.05000000    67.44000000    17.03000000
   C     39.80000000    68.79000000    17.49000000
   C     39.94000000    69.80000000    16.36000000
   O     39.54000000    70.94000000    16.58000000
   C     40.69000000    69.19000000    18.67000000
   C     40.40000000    68.38000000    19.93000000
   C     39.20000000    68.88000000    20.71000000
   O     38.42000000    69.70000000    20.19000000
   O     38.97000000    68.36000000    21.83000000
   H     40.97000000    67.06000000    17.21000000
   H     38.76000000    68.99000000    17.73000000
   H     40.68000000    70.26000000    18.84000000
   H     41.72000000    69.00000000    18.37000000
   H     41.30000000    68.53000000    20.53000000
   H     40.29000000    67.31000000    19.81000000
   N     40.45000000    69.45000000    15.18000000
   C     40.23000000    70.13000000    13.92000000
   C     38.87000000    69.79000000    13.32000000
   O     38.33000000    70.74000000    12.76000000
   C     41.38000000    69.80000000    12.98000000
   C     42.72000000    70.42000000    13.36000000
   C     43.86000000    70.08000000    12.42000000
   O     44.72000000    70.93000000    12.08000000
   O     44.13000000    68.90000000    12.10000000
   H     40.69000000    68.47000000    15.12000000
   H     40.28000000    71.21000000    14.06000000
   H     41.25000000    70.21000000    11.98000000
   H     41.58000000    68.73000000    12.87000000
   H     43.16000000    70.18000000    14.33000000
   H     42.55000000    71.49000000    13.50000000
   N     38.37000000    68.55000000    13.36000000
   C     37.02000000    68.27000000    12.91000000
   H     36.38100000    69.12600000    13.12600000
   H     37.02600000    68.08300000    11.83600000
   H     36.63800000    67.39200000    13.43000000
   H     38.88000000    67.75000000    13.70000000
  Ca     46.59000000    69.14000000    11.33000000
   O     46.76000000    69.13000000    14.17000000
   H     47.24000000    69.96000000    14.16000000
   H     47.06000000    68.69000000    14.96000000
   O     46.81000000    66.62000000    12.22000000
   H     47.73000000    66.51000000    11.95000000
   H     46.75000000    66.17000000    13.06000000

Ca 1.00



