%chk=loop1.holoCaM-CaMKII.run68.water2.chk
%nprocshared=20
%mem=10GB
%nosave
#b3lyp/svp scf=(tight,noincore,xqc) Test 
#IOP(5/87=12) Density=Current Pop=(MK,readradii) iop(6/33=2) iop(6/42=6)

loop1.holoCaM-CaMKII.run68.water2 

   0  1 
   C     16.57000000    46.63000000    -2.37000000
   C     15.91000000    47.21000000    -3.61000000
   O     14.74000000    46.98000000    -3.91000000
   H     17.47300000    47.19600000    -2.14100000
   H     15.88000000    46.69100000    -1.52800000
   H     16.83200000    45.58800000    -2.55100000
   N     16.69000000    47.91000000    -4.43000000
   C     16.19000000    48.41000000    -5.70000000
   C     16.54000000    47.33000000    -6.71000000
   O     17.41000000    47.49000000    -7.57000000
   C     16.84000000    49.75000000    -6.02000000
   C     16.26000000    50.42000000    -7.26000000
   O     16.98000000    51.24000000    -7.86000000
   O     15.12000000    50.02000000    -7.60000000
   H     17.66000000    48.14000000    -4.27000000
   H     15.11000000    48.49000000    -5.67000000
   H     17.93000000    49.68000000    -5.95000000
   H     16.60000000    50.42000000    -5.19000000
   N     15.85000000    46.19000000    -6.63000000
   C     16.13000000    45.04000000    -7.47000000
   C     15.92000000    45.21000000    -8.97000000
   O     16.40000000    44.37000000    -9.72000000
   C     15.52000000    43.74000000    -6.96000000
   C     16.25000000    43.25000000    -5.72000000
   C     15.57000000    41.95000000    -5.28000000
   C     16.28000000    41.17000000    -4.18000000
   N     16.02000000    41.75000000    -2.85000000
   H     15.11000000    46.14000000    -5.95000000
   H     17.19000000    44.80000000    -7.37000000
   H     15.63000000    42.98000000    -7.74000000
   H     14.48000000    43.91000000    -6.68000000
   H     16.22000000    44.03000000    -4.96000000
   H     17.31000000    43.14000000    -5.94000000
   H     15.42000000    41.35000000    -6.17000000
   H     14.59000000    42.26000000    -4.94000000
   H     17.36000000    41.17000000    -4.35000000
   H     16.00000000    40.11000000    -4.20000000
   H     15.90000000    41.06000000    -2.12000000
   H     16.82000000    42.31000000    -2.60000000
   H     15.32000000    42.47000000    -2.82000000
   N     15.37000000    46.36000000    -9.37000000
   C     15.00000000    46.65000000   -10.74000000
   C     15.62000000    47.91000000   -11.34000000
   O     15.39000000    48.28000000   -12.49000000
   C     13.49000000    46.52000000   -10.85000000
   C     12.74000000    47.65000000   -10.16000000
   O     13.34000000    48.53000000    -9.50000000
   O     11.50000000    47.72000000   -10.30000000
   H     15.12000000    47.04000000    -8.67000000
   H     15.38000000    45.91000000   -11.44000000
   H     13.24000000    45.54000000   -10.44000000
   H     13.29000000    46.48000000   -11.92000000
   N     16.32000000    48.73000000   -10.56000000
   C     17.21000000    49.78000000   -11.01000000
   C     16.51000000    51.11000000   -11.25000000
   O     16.99000000    51.81000000   -12.14000000
   H     16.38000000    48.52000000    -9.57000000
   H     17.63000000    49.57000000   -12.00000000
   H     17.90000000    49.99000000   -10.20000000
   N     15.33000000    51.39000000   -10.68000000
   C     14.50000000    52.51000000   -11.06000000
   C     14.71000000    53.76000000   -10.21000000
   O     13.98000000    54.74000000   -10.27000000
   C     13.01000000    52.18000000   -11.01000000
   C     12.44000000    51.84000000    -9.64000000
   O     11.34000000    51.25000000    -9.53000000
   O     13.05000000    52.14000000    -8.59000000
   H     15.04000000    50.79000000    -9.92000000
   H     14.85000000    52.83000000   -12.04000000
   H     12.85000000    51.40000000   -11.76000000
   H     12.32000000    52.98000000   -11.27000000
   N     15.80000000    53.84000000    -9.45000000
   C     16.12000000    54.93000000    -8.55000000
   C     15.56000000    54.86000000    -7.14000000
   O     15.99000000    55.65000000    -6.30000000
   H     16.31000000    52.98000000    -9.32000000
   H     15.82000000    55.89000000    -8.97000000
   H     17.21000000    55.01000000    -8.54000000
   N     14.63000000    53.94000000    -6.87000000
   C     13.89000000    54.00000000    -5.63000000
   C     13.59000000    52.61000000    -5.06000000
   O     13.84000000    51.61000000    -5.72000000
   C     12.56000000    54.67000000    -5.96000000
   C     12.47000000    56.18000000    -5.75000000
   O     12.26000000    54.52000000    -7.33000000
   H     14.32000000    53.36000000    -7.64000000
   H     14.42000000    54.61000000    -4.90000000
   H     11.80000000    54.14000000    -5.39000000
   H     12.74000000    53.75000000    -7.63000000
   H     12.59000000    56.42000000    -4.69000000
   H     13.37000000    56.60000000    -6.21000000
   H     11.50000000    56.49000000    -6.14000000
   N     13.06000000    52.62000000    -3.83000000
   C     12.71000000    51.40000000    -3.14000000
   C     11.26000000    51.52000000    -2.70000000
   O     10.88000000    52.53000000    -2.10000000
   C     13.56000000    51.04000000    -1.93000000
   C     15.05000000    51.10000000    -2.25000000
   C     13.13000000    49.73000000    -1.26000000
   C     16.02000000    51.18000000    -1.07000000
   H     12.80000000    53.48000000    -3.37000000
   H     12.73000000    50.47000000    -3.72000000
   H     13.49000000    51.83000000    -1.18000000
   H     15.32000000    52.01000000    -2.79000000
   H     15.34000000    50.21000000    -2.81000000
   H     13.44000000    48.85000000    -1.82000000
   H     13.74000000    49.86000000    -0.35000000
   H     12.10000000    49.83000000    -0.94000000
   H     15.87000000    52.10000000    -0.51000000
   H     15.83000000    50.37000000    -0.37000000
   H     17.01000000    51.31000000    -1.50000000
   N     10.49000000    50.44000000    -2.87000000
   C      9.11000000    50.38000000    -2.45000000
   C      8.91000000    49.47000000    -1.25000000
   O      9.81000000    48.77000000    -0.79000000
   C      8.14000000    49.82000000    -3.49000000
   C      8.18000000    50.63000000    -4.78000000
   O      8.36000000    48.46000000    -3.79000000
   H     10.81000000    49.68000000    -3.46000000
   H      8.81000000    51.37000000    -2.09000000
   H      7.16000000    50.00000000    -3.04000000
   H      8.08000000    48.45000000    -4.71000000
   H      9.06000000    50.31000000    -5.34000000
   H      7.25000000    50.59000000    -5.34000000
   H      8.39000000    51.69000000    -4.62000000
   N      7.71000000    49.56000000    -0.67000000
   C      7.25000000    48.72000000     0.42000000
   C      7.35000000    47.26000000     0.02000000
   O      7.53000000    46.43000000     0.90000000
   C      5.84000000    49.12000000     0.87000000
   C      5.69000000    50.50000000     1.50000000
   O      5.01000000    49.21000000    -0.26000000
   H      7.05000000    50.13000000    -1.18000000
   H      7.94000000    48.86000000     1.25000000
   H      5.50000000    48.33000000     1.54000000
   H      4.30000000    48.60000000    -0.01000000
   H      6.00000000    51.29000000     0.83000000
   H      4.65000000    50.79000000     1.69000000
   H      6.22000000    50.60000000     2.45000000
   N      7.14000000    46.95000000    -1.27000000
   C      7.18000000    45.58000000    -1.73000000
   C      8.61000000    45.05000000    -1.71000000
   O      8.90000000    44.07000000    -1.04000000
   C      6.51000000    45.56000000    -3.10000000
   C      6.52000000    44.19000000    -3.77000000
   C      5.90000000    43.03000000    -2.99000000
   C      6.15000000    41.65000000    -3.57000000
   N      5.57000000    40.64000000    -2.67000000
   H      6.89000000    47.72000000    -1.87000000
   H      6.64000000    44.98000000    -0.99000000
   H      7.12000000    46.20000000    -3.73000000
   H      5.48000000    45.94000000    -3.04000000
   H      7.56000000    44.02000000    -4.05000000
   H      6.02000000    44.35000000    -4.73000000
   H      4.86000000    43.36000000    -2.97000000
   H      6.24000000    43.01000000    -1.95000000
   H      7.23000000    41.49000000    -3.58000000
   H      5.80000000    41.64000000    -4.61000000
   H      5.99000000    40.60000000    -1.75000000
   H      4.58000000    40.81000000    -2.58000000
   H      5.68000000    39.74000000    -3.12000000
   N      9.56000000    45.87000000    -2.17000000
   C     10.96000000    45.53000000    -2.38000000
   C     11.54000000    45.28000000    -0.99000000
   O     12.39000000    44.41000000    -0.87000000
   C     11.63000000    46.69000000    -3.10000000
   C     11.82000000    46.38000000    -4.59000000
   C     12.19000000    47.55000000    -5.49000000
   O     12.81000000    47.41000000    -6.57000000
   O     11.86000000    48.71000000    -5.17000000
   H      9.20000000    46.73000000    -2.55000000
   H     11.06000000    44.62000000    -2.98000000
   H     12.60000000    46.93000000    -2.65000000
   H     11.00000000    47.55000000    -2.91000000
   H     10.90000000    46.01000000    -5.03000000
   H     12.59000000    45.61000000    -4.65000000
   N     11.23000000    46.14000000    -0.02000000
   C     11.76000000    46.31000000     1.32000000
   H     12.64300000    46.94800000     1.28300000
   H     11.00400000    46.77400000     1.95400000
   H     12.03200000    45.33700000     1.73000000
   H     10.54000000    46.84000000    -0.26000000
  Ca     12.65000000    49.86000000    -7.36100000
   O     10.63000000    51.82000000    -6.92100000
   H      9.87000000    52.40000000    -6.80100000
   H     10.88000000    51.94000000    -7.83100000
   O     10.49000000    48.62000000    -8.24100000
   H     10.97000000    48.42000000    -9.04100000
   H      9.70000000    48.08000000    -8.30100000

Ca 1.00



