%chk=loop3.holoCaM-CaMKII.run58.water2.chk
%nprocshared=20
%mem=10GB
%nosave
#b3lyp/svp scf=(tight,noincore,xqc) Test 
#IOP(5/87=12) Density=Current Pop=(MK,readradii) iop(6/33=2) iop(6/42=6)

loop3.holoCaM-CaMKII.run58.water2 

   0  1 
   C     19.57000000    55.43000000    26.65000000
   C     21.00000000    55.50000000    26.13000000
   O     21.30000000    56.12000000    25.11000000
   H     18.90000000    55.16100000    25.83300000
   H     19.50500000    54.67700000    27.43500000
   H     19.28100000    56.40100000    27.05200000
   N     21.94000000    54.75000000    26.72000000
   C     23.25000000    54.43000000    26.19000000
   C     23.15000000    53.57000000    24.94000000
   O     22.31000000    52.67000000    24.88000000
   C     24.08000000    53.68000000    27.23000000
   C     25.57000000    53.66000000    26.92000000
   O     26.04000000    54.00000000    25.82000000
   O     26.22000000    53.52000000    27.98000000
   H     21.60000000    54.32000000    27.57000000
   H     23.74000000    55.38000000    25.96000000
   H     23.82000000    52.62000000    27.30000000
   H     23.95000000    54.11000000    28.22000000
   N     23.90000000    54.00000000    23.93000000
   C     23.93000000    53.29000000    22.67000000
   C     25.01000000    52.24000000    22.52000000
   O     24.67000000    51.07000000    22.31000000
   C     23.82000000    54.26000000    21.50000000
   C     23.38000000    53.55000000    20.21000000
   C     23.56000000    54.52000000    19.05000000
   C     23.23000000    53.90000000    17.69000000
   N     23.37000000    54.91000000    16.64000000
   H     24.61000000    54.72000000    24.01000000
   H     23.04000000    52.65000000    22.63000000
   H     24.83000000    54.64000000    21.35000000
   H     23.21000000    55.13000000    21.73000000
   H     22.36000000    53.25000000    20.44000000
   H     24.00000000    52.67000000    20.09000000
   H     24.57000000    54.91000000    18.94000000
   H     22.83000000    55.33000000    19.09000000
   H     22.18000000    53.63000000    17.78000000
   H     23.88000000    53.04000000    17.53000000
   H     22.86000000    54.70000000    15.79000000
   H     23.34000000    55.88000000    16.93000000
   H     24.36000000    54.88000000    16.42000000
   N     26.31000000    52.53000000    22.69000000
   C     27.42000000    51.61000000    22.74000000
   C     27.38000000    50.78000000    24.02000000
   O     27.71000000    49.60000000    23.90000000
   C     28.69000000    52.44000000    22.61000000
   C     28.84000000    53.63000000    23.55000000
   O     29.09000000    53.35000000    24.74000000
   O     28.79000000    54.80000000    23.10000000
   H     26.49000000    53.51000000    22.85000000
   H     27.40000000    50.85000000    21.95000000
   H     28.79000000    52.81000000    21.59000000
   H     29.52000000    51.74000000    22.72000000
   N     27.03000000    51.30000000    25.19000000
   C     26.80000000    50.48000000    26.36000000
   C     27.77000000    50.81000000    27.48000000
   O     27.71000000    50.28000000    28.59000000
   H     26.72000000    52.26000000    25.22000000
   H     26.95000000    49.41000000    26.21000000
   H     25.74000000    50.59000000    26.60000000
   N     28.70000000    51.76000000    27.32000000
   C     29.80000000    52.01000000    28.22000000
   C     29.48000000    52.66000000    29.56000000
   O     30.38000000    53.13000000    30.26000000
   C     30.84000000    52.77000000    27.40000000
   C     30.62000000    54.26000000    27.18000000
   N     31.72000000    54.97000000    26.92000000
   O     29.49000000    54.73000000    27.29000000
   H     28.80000000    52.13000000    26.39000000
   H     30.19000000    51.05000000    28.56000000
   H     30.99000000    52.33000000    26.42000000
   H     31.86000000    52.62000000    27.76000000
   H     32.58000000    54.44000000    26.91000000
   H     31.67000000    55.95000000    26.72000000
   N     28.21000000    52.83000000    29.93000000
   C     27.73000000    53.30000000    31.22000000
   C     27.57000000    54.81000000    31.23000000
   O     27.59000000    55.40000000    32.31000000
   H     27.48000000    52.67000000    29.26000000
   H     28.51000000    53.11000000    31.96000000
   H     26.79000000    52.83000000    31.50000000
   N     27.55000000    55.45000000    30.05000000
   C     27.58000000    56.88000000    29.83000000
   C     26.72000000    57.33000000    28.66000000
   O     26.66000000    56.56000000    27.70000000
   C     28.97000000    57.49000000    29.65000000
   C     29.88000000    57.50000000    30.85000000
   C     29.45000000    57.92000000    32.12000000
   C     31.21000000    57.08000000    30.69000000
   C     30.25000000    57.71000000    33.25000000
   C     32.07000000    57.04000000    31.80000000
   C     31.55000000    57.21000000    33.10000000
   O     32.26000000    56.88000000    34.21000000
   H     27.45000000    54.96000000    29.17000000
   H     27.08000000    57.27000000    30.72000000
   H     28.89000000    58.50000000    29.26000000
   H     29.39000000    56.98000000    28.78000000
   H     28.42000000    58.18000000    32.25000000
   H     31.59000000    56.65000000    29.78000000
   H     29.91000000    57.93000000    34.26000000
   H     33.07000000    56.64000000    31.82000000
   H     31.76000000    56.78000000    35.02000000
   N     26.12000000    58.52000000    28.63000000
   C     25.23000000    58.97000000    27.58000000
   C     25.70000000    60.24000000    26.90000000
   O     25.72000000    61.27000000    27.57000000
   C     23.80000000    59.08000000    28.08000000
   C     23.21000000    57.82000000    28.72000000
   C     22.90000000    59.72000000    27.03000000
   C     22.08000000    58.04000000    29.72000000
   H     26.04000000    58.97000000    29.53000000
   H     25.24000000    58.26000000    26.75000000
   H     23.90000000    59.81000000    28.89000000
   H     23.96000000    57.26000000    29.28000000
   H     22.91000000    57.21000000    27.87000000
   H     22.76000000    59.24000000    26.06000000
   H     21.92000000    59.71000000    27.51000000
   H     23.11000000    60.76000000    26.80000000
   H     22.43000000    58.65000000    30.56000000
   H     21.30000000    58.64000000    29.27000000
   H     21.71000000    57.05000000    29.99000000
   N     25.91000000    60.19000000    25.58000000
   C     26.27000000    61.33000000    24.77000000
   C     25.11000000    62.05000000    24.09000000
   O     24.03000000    61.46000000    23.98000000
   C     27.51000000    61.09000000    23.92000000
   O     27.19000000    60.02000000    23.05000000
   H     25.76000000    59.30000000    25.11000000
   H     26.63000000    62.08000000    25.47000000
   H     28.32000000    60.75000000    24.57000000
   H     27.88000000    62.00000000    23.44000000
   H     27.21000000    59.21000000    23.57000000
   N     25.32000000    63.25000000    23.56000000
   C     24.31000000    63.98000000    22.83000000
   C     23.94000000    63.31000000    21.52000000
   O     22.75000000    63.24000000    21.20000000
   C     24.78000000    65.41000000    22.56000000
   H     26.23000000    63.69000000    23.69000000
   H     23.41000000    64.09000000    23.44000000
   H     25.44000000    65.39000000    21.69000000
   H     23.82000000    65.90000000    22.42000000
   H     25.34000000    65.78000000    23.42000000
   N     24.87000000    62.73000000    20.76000000
   C     24.61000000    62.01000000    19.53000000
   C     23.84000000    60.72000000    19.78000000
   O     23.22000000    60.20000000    18.86000000
   C     25.95000000    61.69000000    18.88000000
   H     25.83000000    62.99000000    20.94000000
   H     23.94000000    62.59000000    18.89000000
   H     26.62000000    61.22000000    19.59000000
   H     25.94000000    61.02000000    18.02000000
   H     26.44000000    62.58000000    18.50000000
   N     23.91000000    60.08000000    20.95000000
   C     23.12000000    58.97000000    21.43000000
   C     21.79000000    59.53000000    21.92000000
   O     20.77000000    58.85000000    21.82000000
   C     23.75000000    58.23000000    22.61000000
   C     25.07000000    57.55000000    22.29000000
   C     25.77000000    56.85000000    23.45000000
   O     26.20000000    55.68000000    23.36000000
   O     26.12000000    57.53000000    24.44000000
   H     24.47000000    60.57000000    21.64000000
   H     23.08000000    58.24000000    20.63000000
   H     23.07000000    57.43000000    22.92000000
   H     23.82000000    58.94000000    23.43000000
   H     25.75000000    58.23000000    21.77000000
   H     24.92000000    56.75000000    21.56000000
   N     21.75000000    60.72000000    22.52000000
   C     20.49000000    61.31000000    22.92000000
   H     19.71900000    60.54000000    22.94000000
   H     20.59200000    61.74700000    23.91300000
   H     20.20900000    62.08600000    22.20800000
   H     22.61000000    61.17000000    22.79000000
  Ca     27.90000000    55.74000000    25.33000000
   O     29.78000000    57.77000000    26.02000000
   H     29.42000000    58.59000000    26.35000000
   H     30.73000000    57.92000000    26.00000000
   O     28.99000000    57.61000000    23.35000000
   H     29.07000000    57.22000000    22.49000000
   H     29.78000000    58.15000000    23.44000000

Ca 1.00



