%chk=loop3.apoCaM-CA-Ng.Init295.run86.water5.chk
%nprocshared=20
%mem=10GB
%nosave
#b3lyp/svp scf=(tight,noincore,xqc) Test 
#IOP(5/87=12) Density=Current Pop=(MK,readradii) iop(6/33=2) iop(6/42=6)

loop3.apoCaM-CA-Ng.Init295.run86.water5 

   0  1 
   C    102.44000000   -19.86000000    59.84000000
   C    102.36000000   -21.35000000    59.53000000
   O    101.78000000   -21.64000000    58.49000000
   H    103.22800000   -19.40600000    59.23900000
   H    101.48600000   -19.38800000    59.60500000
   H    102.66400000   -19.72000000    60.89700000
   N    102.58000000   -22.24000000    60.50000000
   C    102.69000000   -23.67000000    60.29000000
   C    101.72000000   -24.43000000    61.18000000
   O    101.50000000   -24.02000000    62.32000000
   C    104.16000000   -24.05000000    60.40000000
   C    104.38000000   -25.45000000    59.84000000
   O    103.76000000   -26.43000000    60.30000000
   O    105.17000000   -25.66000000    58.89000000
   H    102.87000000   -21.87000000    61.39000000
   H    102.29000000   -23.86000000    59.29000000
   H    104.46000000   -23.92000000    61.44000000
   H    104.75000000   -23.26000000    59.92000000
   N    101.05000000   -25.43000000    60.61000000
   C     99.93000000   -26.03000000    61.30000000
   C    100.40000000   -27.09000000    62.28000000
   O     99.59000000   -27.51000000    63.11000000
   C     98.74000000   -26.39000000    60.42000000
   C     98.13000000   -25.24000000    59.62000000
   C     97.10000000   -24.39000000    60.36000000
   C     96.71000000   -23.09000000    59.67000000
   N     95.89000000   -23.46000000    58.50000000
   H    101.47000000   -25.85000000    59.80000000
   H     99.50000000   -25.23000000    61.91000000
   H     98.03000000   -26.79000000    61.14000000
   H     99.09000000   -27.19000000    59.76000000
   H     97.74000000   -25.56000000    58.65000000
   H     98.93000000   -24.58000000    59.30000000
   H     97.42000000   -24.10000000    61.36000000
   H     96.22000000   -25.03000000    60.50000000
   H     97.60000000   -22.58000000    59.30000000
   H     96.16000000   -22.41000000    60.32000000
   H     96.44000000   -23.98000000    57.84000000
   H     95.04000000   -23.97000000    58.69000000
   H     95.60000000   -22.61000000    58.04000000
   N    101.65000000   -27.54000000    62.30000000
   C    102.20000000   -28.61000000    63.11000000
   C    103.60000000   -28.29000000    63.62000000
   O    104.16000000   -29.00000000    64.46000000
   C    102.31000000   -29.89000000    62.29000000
   C    103.02000000   -29.62000000    60.97000000
   O    102.30000000   -29.84000000    59.97000000
   O    104.15000000   -29.08000000    60.92000000
   H    102.26000000   -27.28000000    61.53000000
   H    101.62000000   -28.73000000    64.02000000
   H    101.35000000   -30.35000000    62.05000000
   H    102.92000000   -30.58000000    62.86000000
   N    104.20000000   -27.21000000    63.12000000
   C    105.46000000   -26.60000000    63.50000000
   C    106.67000000   -27.06000000    62.70000000
   O    107.77000000   -26.57000000    62.98000000
   H    103.72000000   -26.66000000    62.43000000
   H    105.69000000   -26.83000000    64.54000000
   H    105.42000000   -25.53000000    63.31000000
   N    106.52000000   -28.04000000    61.80000000
   C    107.58000000   -28.82000000    61.19000000
   C    107.81000000   -28.55000000    59.71000000
   O    106.91000000   -28.48000000    58.88000000
   C    107.24000000   -30.28000000    61.44000000
   C    108.43000000   -31.14000000    61.02000000
   N    108.34000000   -32.08000000    60.07000000
   O    109.52000000   -30.88000000    61.51000000
   H    105.60000000   -28.39000000    61.60000000
   H    108.49000000   -28.62000000    61.76000000
   H    106.42000000   -30.66000000    60.82000000
   H    107.15000000   -30.41000000    62.52000000
   H    107.47000000   -32.48000000    59.76000000
   H    109.15000000   -32.67000000    60.00000000
   N    109.08000000   -28.39000000    59.33000000
   C    109.54000000   -28.04000000    58.00000000
   C    109.41000000   -29.09000000    56.90000000
   O    109.41000000   -28.78000000    55.72000000
   H    109.75000000   -28.52000000    60.07000000
   H    110.61000000   -27.83000000    58.12000000
   H    109.15000000   -27.09000000    57.63000000
   N    109.47000000   -30.39000000    57.23000000
   C    109.48000000   -31.44000000    56.23000000
   C    108.13000000   -31.59000000    55.54000000
   O    107.12000000   -31.67000000    56.23000000
   C    110.18000000   -32.70000000    56.73000000
   C    110.71000000   -33.69000000    55.72000000
   C    109.83000000   -34.68000000    55.26000000
   C    112.05000000   -33.62000000    55.33000000
   C    110.27000000   -35.67000000    54.38000000
   C    112.45000000   -34.52000000    54.34000000
   C    111.58000000   -35.52000000    53.87000000
   O    112.08000000   -36.49000000    53.05000000
   H    109.42000000   -30.69000000    58.19000000
   H    110.22000000   -31.18000000    55.47000000
   H    109.67000000   -33.19000000    57.57000000
   H    111.06000000   -32.35000000    57.27000000
   H    108.83000000   -34.74000000    55.69000000
   H    112.71000000   -32.89000000    55.76000000
   H    109.63000000   -36.43000000    53.96000000
   H    113.45000000   -34.62000000    53.94000000
   H    113.00000000   -36.36000000    52.85000000
   N    108.10000000   -31.55000000    54.21000000
   C    106.91000000   -31.66000000    53.38000000
   C    106.21000000   -33.01000000    53.45000000
   O    105.94000000   -33.58000000    54.51000000
   C    106.02000000   -30.45000000    53.61000000
   C    104.59000000   -30.58000000    53.09000000
   C    106.72000000   -29.31000000    52.87000000
   C    103.63000000   -29.41000000    53.26000000
   H    108.98000000   -31.38000000    53.76000000
   H    107.29000000   -31.68000000    52.35000000
   H    105.93000000   -30.22000000    54.67000000
   H    104.05000000   -31.38000000    53.58000000
   H    104.59000000   -30.79000000    52.02000000
   H    106.77000000   -29.57000000    51.81000000
   H    106.21000000   -28.36000000    53.03000000
   H    107.73000000   -29.13000000    53.23000000
   H    102.57000000   -29.63000000    53.10000000
   H    103.73000000   -29.12000000    54.31000000
   H    103.91000000   -28.66000000    52.53000000
   N    105.93000000   -33.56000000    52.27000000
   C    105.19000000   -34.80000000    52.17000000
   C    105.33000000   -35.46000000    50.80000000
   O    105.17000000   -36.68000000    50.70000000
   C    103.75000000   -34.46000000    52.51000000
   O    103.19000000   -33.41000000    51.74000000
   H    106.24000000   -33.06000000    51.44000000
   H    105.65000000   -35.51000000    52.85000000
   H    103.78000000   -34.17000000    53.56000000
   H    103.16000000   -35.35000000    52.29000000
   H    102.43000000   -33.04000000    52.18000000
   N    105.41000000   -34.70000000    49.71000000
   C    105.43000000   -35.15000000    48.33000000
   C    104.29000000   -36.11000000    48.02000000
   O    104.46000000   -37.20000000    47.47000000
   C    106.82000000   -35.67000000    47.99000000
   H    105.45000000   -33.70000000    49.82000000
   H    105.34000000   -34.27000000    47.69000000
   H    106.87000000   -35.83000000    46.91000000
   H    107.53000000   -34.87000000    48.17000000
   H    107.06000000   -36.44000000    48.73000000
   N    103.01000000   -35.79000000    48.22000000
   C    102.50000000   -34.45000000    48.42000000
   C    102.46000000   -33.70000000    47.09000000
   O    102.34000000   -34.24000000    46.00000000
   C    101.12000000   -34.58000000    49.06000000
   H    102.33000000   -36.49000000    47.99000000
   H    103.11000000   -34.02000000    49.21000000
   H    100.69000000   -33.62000000    49.35000000
   H    100.49000000   -35.16000000    48.39000000
   H    101.19000000   -35.14000000    49.99000000
   N    102.52000000   -32.36000000    47.05000000
   C    102.89000000   -31.46000000    48.13000000
   C    104.08000000   -30.57000000    47.79000000
   O    104.91000000   -30.25000000    48.64000000
   C    101.68000000   -30.64000000    48.55000000
   C    101.86000000   -29.76000000    49.79000000
   C    100.59000000   -29.09000000    50.28000000
   O    100.35000000   -27.93000000    49.87000000
   O     99.63000000   -29.61000000    50.88000000
   H    102.26000000   -31.92000000    46.18000000
   H    103.27000000   -32.00000000    48.99000000
   H    100.86000000   -31.31000000    48.82000000
   H    101.39000000   -29.93000000    47.78000000
   H    102.62000000   -29.00000000    49.65000000
   H    102.22000000   -30.37000000    50.62000000
   N    104.33000000   -30.41000000    46.49000000
   C    105.44000000   -29.66000000    45.94000000
   H    106.31000000   -30.31100000    45.85300000
   H    105.17000000   -29.28100000    44.95400000
   H    105.67700000   -28.82500000    46.59900000
   H    103.58000000   -30.70000000    45.89000000
  Ca    104.15400000   -28.10400000    58.53000000
   O    101.32400000   -27.47400000    58.73000000
   H    100.85400000   -28.30400000    58.70000000
   H    100.98400000   -26.98400000    57.99000000
   O    102.59400000   -29.58400000    56.80000000
   H    102.79400000   -30.52400000    56.81000000
   H    101.89400000   -29.49400000    56.15000000
   O    104.99400000   -30.61400000    57.73000000
   H    104.73400000   -31.27400000    58.38000000
   H    105.74400000   -30.99400000    57.29000000
   O    103.26400000   -26.03400000    56.82000000
   H    103.52400000   -25.11400000    56.84000000
   H    102.32400000   -26.02400000    56.66000000
   O    105.81400000   -27.95400000    56.37000000
   H    106.08400000   -27.15400000    55.92000000
   H    105.91400000   -28.64400000    55.71000000

Ca 1.00



