%chk=loop1.apoCaM-CA-Ng.Init293.run76.water5.chk
%nprocshared=20
%mem=10GB
%nosave
#b3lyp/svp scf=(tight,noincore,xqc) Test 
#IOP(5/87=12) Density=Current Pop=(MK,readradii) iop(6/33=2) iop(6/42=6)

loop1.apoCaM-CA-Ng.Init293.run76.water5 

   0  1 
   C     93.62000000    94.30000000    45.30000000
   C     95.01000000    94.27000000    44.68000000
   O     95.17000000    93.99000000    43.49000000
   H     92.90100000    93.87600000    44.59900000
   H     93.61900000    93.71500000    46.21900000
   H     93.34400000    95.33000000    45.52400000
   N     96.04000000    94.49000000    45.49000000
   C     97.41000000    94.77000000    45.10000000
   C     98.25000000    93.50000000    45.14000000
   O     99.44000000    93.48000000    44.83000000
   C     98.11000000    95.86000000    45.89000000
   C     97.99000000    95.75000000    47.41000000
   O     98.97000000    96.20000000    48.04000000
   O     96.98000000    95.30000000    47.97000000
   H     95.83000000    94.66000000    46.46000000
   H     97.43000000    95.17000000    44.08000000
   H     97.60000000    96.80000000    45.67000000
   H     99.15000000    96.03000000    45.61000000
   N     97.63000000    92.37000000    45.45000000
   C     98.27000000    91.14000000    45.87000000
   C     98.37000000    90.06000000    44.80000000
   O     97.34000000    89.67000000    44.24000000
   C     97.42000000    90.49000000    46.96000000
   C     97.26000000    91.37000000    48.20000000
   C     98.57000000    91.61000000    48.96000000
   C     98.25000000    92.21000000    50.32000000
   N     98.16000000    93.67000000    50.18000000
   H     96.62000000    92.40000000    45.56000000
   H     99.27000000    91.35000000    46.26000000
   H     97.88000000    89.55000000    47.28000000
   H     96.47000000    90.22000000    46.51000000
   H     96.46000000    90.96000000    48.81000000
   H     96.92000000    92.34000000    47.83000000
   H     99.19000000    92.25000000    48.34000000
   H     99.06000000    90.66000000    49.18000000
   H     99.08000000    91.90000000    50.96000000
   H     97.29000000    91.84000000    50.68000000
   H     97.42000000    94.01000000    49.58000000
   H     97.95000000    94.00000000    51.11000000
   H     99.02000000    94.14000000    49.93000000
   N     99.51000000    89.54000000    44.35000000
   C    100.88000000    89.91000000    44.64000000
   C    101.82000000    89.69000000    43.46000000
   O    102.71000000    88.85000000    43.55000000
   C    101.16000000    89.02000000    45.85000000
   C    102.58000000    89.19000000    46.38000000
   O    103.13000000    88.21000000    46.93000000
   O    103.14000000    90.29000000    46.22000000
   H     99.41000000    88.78000000    43.69000000
   H    100.95000000    90.98000000    44.84000000
   H    100.93000000    87.99000000    45.57000000
   H    100.52000000    89.38000000    46.66000000
   N    101.72000000    90.34000000    42.30000000
   C    100.75000000    91.32000000    41.84000000
   C    100.86000000    91.95000000    40.46000000
   O    101.99000000    92.02000000    39.96000000
   H    102.46000000    90.10000000    41.66000000
   H    100.64000000    92.13000000    42.56000000
   H     99.87000000    90.70000000    41.71000000
   N     99.77000000    92.54000000    39.96000000
   C     98.40000000    92.70000000    40.40000000
   C     97.87000000    94.10000000    40.11000000
   O     98.04000000    94.59000000    39.00000000
   C     97.44000000    91.68000000    39.79000000
   C     97.92000000    90.24000000    39.96000000
   O     97.48000000    89.51000000    40.88000000
   O     98.67000000    89.72000000    39.11000000
   H     99.94000000    92.69000000    38.98000000
   H     98.43000000    92.50000000    41.47000000
   H     97.47000000    91.98000000    38.74000000
   H     96.41000000    91.80000000    40.11000000
   N     97.23000000    94.70000000    41.11000000
   C     96.56000000    95.98000000    41.04000000
   C     95.21000000    95.97000000    40.34000000
   O     94.66000000    97.05000000    40.14000000
   H     96.95000000    94.09000000    41.87000000
   H     97.24000000    96.62000000    40.47000000
   H     96.36000000    96.48000000    41.99000000
   N     94.65000000    94.81000000    39.99000000
   C     93.32000000    94.73000000    39.41000000
   C     92.62000000    93.46000000    39.87000000
   O     93.31000000    92.52000000    40.27000000
   C     93.44000000    94.66000000    37.90000000
   C     94.27000000    93.56000000    37.23000000
   O     93.87000000    95.92000000    37.44000000
   H     95.19000000    93.96000000    40.05000000
   H     92.70000000    95.58000000    39.68000000
   H     92.40000000    94.66000000    37.55000000
   H     94.74000000    96.03000000    37.83000000
   H     95.04000000    93.20000000    37.91000000
   H     93.63000000    92.70000000    37.07000000
   H     94.75000000    93.83000000    36.29000000
   N     91.29000000    93.45000000    39.73000000
   C     90.37000000    92.44000000    40.20000000
   C     89.56000000    91.84000000    39.06000000
   O     88.55000000    92.38000000    38.63000000
   C     89.61000000    92.99000000    41.42000000
   C     88.71000000    92.06000000    42.22000000
   C     89.00000000    94.37000000    41.22000000
   C     89.21000000    90.65000000    42.49000000
   H     90.85000000    94.31000000    39.44000000
   H     91.02000000    91.61000000    40.47000000
   H     90.42000000    93.27000000    42.09000000
   H     87.79000000    92.02000000    41.64000000
   H     88.45000000    92.52000000    43.18000000
   H     88.47000000    94.56000000    40.29000000
   H     88.39000000    94.47000000    42.11000000
   H     89.83000000    95.08000000    41.20000000
   H     88.51000000    90.09000000    43.12000000
   H     89.44000000    90.09000000    41.58000000
   H     90.15000000    90.60000000    43.04000000
   N     89.93000000    90.65000000    38.57000000
   C     89.32000000    89.86000000    37.52000000
   C     88.62000000    88.64000000    38.10000000
   O     87.70000000    88.15000000    37.44000000
   C     90.29000000    89.56000000    36.39000000
   C     91.34000000    88.54000000    36.82000000
   O     91.03000000    90.66000000    35.90000000
   H     90.73000000    90.26000000    39.06000000
   H     88.50000000    90.42000000    37.06000000
   H     89.74000000    89.21000000    35.52000000
   H     90.43000000    91.31000000    35.52000000
   H     91.75000000    88.05000000    35.93000000
   H     92.08000000    88.87000000    37.55000000
   H     90.84000000    87.74000000    37.36000000
   N     88.99000000    88.23000000    39.31000000
   C     88.55000000    87.01000000    39.96000000
   C     88.90000000    85.71000000    39.24000000
   O     88.92000000    85.53000000    38.02000000
   C     87.04000000    87.12000000    40.16000000
   C     86.48000000    88.32000000    40.92000000
   O     86.57000000    86.03000000    40.92000000
   H     89.90000000    88.55000000    39.63000000
   H     88.96000000    87.01000000    40.96000000
   H     86.48000000    87.03000000    39.23000000
   H     86.06000000    86.45000000    41.62000000
   H     86.83000000    88.31000000    41.95000000
   H     86.79000000    89.23000000    40.40000000
   H     85.40000000    88.41000000    40.95000000
   N     89.08000000    84.70000000    40.08000000
   C     89.16000000    83.30000000    39.68000000
   C     90.42000000    82.57000000    40.13000000
   O     90.78000000    81.66000000    39.38000000
   C     87.90000000    82.58000000    40.15000000
   C     87.09000000    81.99000000    39.00000000
   C     86.51000000    83.04000000    38.06000000
   C     85.68000000    82.31000000    37.01000000
   N     84.85000000    83.28000000    36.27000000
   H     89.09000000    84.88000000    41.07000000
   H     89.21000000    83.12000000    38.61000000
   H     87.27000000    83.24000000    40.75000000
   H     88.21000000    81.77000000    40.80000000
   H     86.31000000    81.33000000    39.39000000
   H     87.73000000    81.31000000    38.42000000
   H     87.38000000    83.60000000    37.74000000
   H     85.78000000    83.63000000    38.62000000
   H     85.07000000    81.59000000    37.55000000
   H     86.29000000    81.81000000    36.25000000
   H     84.01000000    83.46000000    36.82000000
   H     85.39000000    84.10000000    36.07000000
   H     84.53000000    82.81000000    35.44000000
   N     91.08000000    82.80000000    41.26000000
   C     91.02000000    83.79000000    42.31000000
   C     89.63000000    83.96000000    42.93000000
   O     89.20000000    85.05000000    43.30000000
   C     91.71000000    85.11000000    41.98000000
   C     91.87000000    86.13000000    43.11000000
   C     93.12000000    86.99000000    42.98000000
   O     94.17000000    86.71000000    43.60000000
   O     93.10000000    87.97000000    42.21000000
   H     91.81000000    82.12000000    41.41000000
   H     91.62000000    83.45000000    43.15000000
   H     91.15000000    85.57000000    41.17000000
   H     92.74000000    84.85000000    41.72000000
   H     92.00000000    85.59000000    44.05000000
   H     90.95000000    86.70000000    43.17000000
   N     89.02000000    82.78000000    43.08000000
   C     87.82000000    82.62000000    43.88000000
   H     86.99200000    82.32200000    43.23700000
   H     87.98600000    81.85300000    44.63600000
   H     87.57900000    83.56500000    44.36700000
   H     89.53000000    81.97000000    42.75000000
  Ca     95.43000000    89.03000000    42.26000000
   O     95.76000000    87.30000000    40.35000000
   H     96.48000000    87.51000000    39.76000000
   H     95.11000000    86.87000000    39.79000000
   O     94.35000000    90.07000000    39.87000000
   H     94.68000000    89.87000000    38.99000000
   H     93.57000000    90.61000000    39.72000000
   O     94.20000000    89.98000000    44.38000000
   H     94.43000000    90.67000000    45.01000000
   H     93.69000000    89.35000000    44.89000000
   O     97.05000000    87.09000000    43.34000000
   H     96.62000000    86.88000000    44.17000000
   H     97.95000000    86.77000000    43.44000000
   O     94.82000000    91.69000000    42.23000000
   H     94.30000000    92.11000000    41.55000000
   H     95.11000000    92.40000000    42.79000000

Ca 1.00



