%chk=loop1.holoCaM.run9.water2.chk
%nprocshared=20
%mem=10GB
%nosave
#b3lyp/svp scf=(tight,noincore,xqc) Test 
#IOP(5/87=12) Density=Current Pop=(MK,readradii) iop(6/33=2) iop(6/42=6)

loop1.holoCaM.run9.water2 

   0  1 
   C     48.23000000    38.12000000    -8.00000000
   C     47.51000000    37.92000000    -9.32000000
   O     47.72000000    36.85000000    -9.88000000
   H     49.12700000    38.71800000    -8.16300000
   H     47.57200000    38.63600000    -7.30100000
   H     48.51000000    37.15100000    -7.58800000
   N     46.68000000    38.84000000    -9.83000000
   C     46.16000000    38.78000000   -11.18000000
   C     47.14000000    39.32000000   -12.22000000
   O     47.40000000    40.51000000   -12.32000000
   C     44.93000000    39.67000000   -11.13000000
   C     44.30000000    39.87000000   -12.50000000
   O     44.44000000    38.93000000   -13.30000000
   O     43.63000000    40.91000000   -12.70000000
   H     46.32000000    39.57000000    -9.24000000
   H     45.92000000    37.74000000   -11.39000000
   H     45.23000000    40.61000000   -10.68000000
   H     44.21000000    39.18000000   -10.46000000
   N     47.78000000    38.38000000   -12.93000000
   C     49.03000000    38.62000000   -13.63000000
   C     48.89000000    39.26000000   -15.00000000
   O     49.79000000    39.96000000   -15.47000000
   C     49.77000000    37.28000000   -13.59000000
   C     51.27000000    37.45000000   -13.78000000
   C     52.06000000    36.15000000   -13.74000000
   C     53.47000000    36.27000000   -14.29000000
   N     54.17000000    34.97000000   -14.28000000
   H     47.52000000    37.41000000   -12.82000000
   H     49.62000000    39.26000000   -12.98000000
   H     49.31000000    36.54000000   -14.25000000
   H     49.63000000    36.94000000   -12.56000000
   H     51.55000000    38.09000000   -12.94000000
   H     51.43000000    38.06000000   -14.67000000
   H     51.61000000    35.35000000   -14.33000000
   H     52.11000000    35.79000000   -12.71000000
   H     54.00000000    37.03000000   -13.72000000
   H     53.45000000    36.72000000   -15.28000000
   H     54.29000000    34.63000000   -13.34000000
   H     53.53000000    34.31000000   -14.71000000
   H     55.08000000    35.08000000   -14.71000000
   N     47.73000000    39.11000000   -15.64000000
   C     47.29000000    39.70000000   -16.89000000
   C     46.32000000    40.86000000   -16.74000000
   O     46.50000000    41.88000000   -17.41000000
   C     46.67000000    38.60000000   -17.75000000
   C     45.52000000    37.76000000   -17.21000000
   O     45.01000000    37.98000000   -16.09000000
   O     45.17000000    36.82000000   -17.95000000
   H     47.06000000    38.53000000   -15.16000000
   H     48.15000000    40.10000000   -17.42000000
   H     47.47000000    37.92000000   -18.05000000
   H     46.28000000    39.11000000   -18.63000000
   N     45.44000000    40.86000000   -15.74000000
   C     44.62000000    42.03000000   -15.50000000
   C     43.16000000    42.05000000   -15.92000000
   O     42.63000000    43.03000000   -16.43000000
   H     45.40000000    40.07000000   -15.11000000
   H     44.99000000    42.89000000   -16.06000000
   H     44.64000000    42.34000000   -14.45000000
   N     42.54000000    40.87000000   -15.81000000
   C     41.14000000    40.67000000   -16.14000000
   C     40.16000000    40.97000000   -15.01000000
   O     38.96000000    41.16000000   -15.16000000
   C     40.85000000    39.28000000   -16.70000000
   C     41.38000000    38.15000000   -15.83000000
   O     41.28000000    38.25000000   -14.58000000
   O     42.02000000    37.18000000   -16.30000000
   H     43.10000000    40.04000000   -15.72000000
   H     40.87000000    41.30000000   -16.98000000
   H     41.27000000    39.16000000   -17.70000000
   H     39.78000000    39.11000000   -16.77000000
   N     40.71000000    41.10000000   -13.80000000
   C     39.96000000    41.51000000   -12.64000000
   C     39.58000000    40.39000000   -11.68000000
   O     38.83000000    40.64000000   -10.74000000
   H     41.71000000    41.01000000   -13.73000000
   H     39.00000000    41.95000000   -12.91000000
   H     40.55000000    42.28000000   -12.13000000
   N     39.92000000    39.16000000   -12.07000000
   C     39.79000000    37.88000000   -11.41000000
   C     41.12000000    37.17000000   -11.17000000
   O     42.12000000    37.39000000   -11.86000000
   C     38.79000000    36.97000000   -12.13000000
   C     37.38000000    37.55000000   -11.99000000
   O     39.12000000    36.89000000   -13.50000000
   H     40.51000000    39.17000000   -12.89000000
   H     39.33000000    38.08000000   -10.44000000
   H     38.82000000    36.00000000   -11.64000000
   H     39.64000000    37.64000000   -13.76000000
   H     36.71000000    37.00000000   -12.66000000
   H     37.19000000    37.50000000   -10.92000000
   H     37.34000000    38.59000000   -12.30000000
   N     41.12000000    36.29000000   -10.18000000
   C     42.16000000    35.30000000    -9.97000000
   C     41.76000000    33.88000000   -10.31000000
   O     40.80000000    33.35000000    -9.75000000
   C     42.74000000    35.44000000    -8.56000000
   C     43.66000000    36.65000000    -8.48000000
   C     43.52000000    34.23000000    -8.06000000
   C     43.95000000    37.25000000    -7.11000000
   H     40.24000000    36.23000000    -9.68000000
   H     42.99000000    35.55000000   -10.63000000
   H     41.91000000    35.57000000    -7.86000000
   H     43.27000000    37.52000000    -9.00000000
   H     44.64000000    36.47000000    -8.92000000
   H     44.40000000    34.09000000    -8.70000000
   H     43.86000000    34.39000000    -7.04000000
   H     43.00000000    33.29000000    -8.27000000
   H     44.51000000    36.57000000    -6.47000000
   H     44.52000000    38.17000000    -7.26000000
   H     43.00000000    37.52000000    -6.64000000
   N     42.39000000    33.21000000   -11.27000000
   C     42.16000000    31.82000000   -11.62000000
   C     43.11000000    30.84000000   -10.94000000
   O     43.90000000    31.29000000   -10.12000000
   C     42.29000000    31.60000000   -13.12000000
   C     43.69000000    31.50000000   -13.72000000
   O     41.51000000    30.48000000   -13.51000000
   H     43.12000000    33.68000000   -11.78000000
   H     41.16000000    31.45000000   -11.37000000
   H     41.72000000    32.44000000   -13.53000000
   H     41.27000000    30.72000000   -14.41000000
   H     43.58000000    31.78000000   -14.77000000
   H     44.37000000    32.23000000   -13.28000000
   H     44.08000000    30.49000000   -13.61000000
   N     43.13000000    29.52000000   -11.11000000
   C     43.93000000    28.54000000   -10.40000000
   C     45.41000000    28.83000000   -10.61000000
   O     46.24000000    28.79000000    -9.71000000
   C     43.68000000    27.12000000   -10.91000000
   C     42.41000000    26.49000000   -10.34000000
   O     43.44000000    27.20000000   -12.29000000
   H     42.53000000    29.09000000   -11.80000000
   H     43.80000000    28.42000000    -9.33000000
   H     44.60000000    26.56000000   -10.70000000
   H     43.13000000    26.37000000   -12.67000000
   H     41.62000000    26.89000000   -10.97000000
   H     42.46000000    25.40000000   -10.29000000
   H     42.21000000    26.77000000    -9.31000000
   N     45.80000000    29.21000000   -11.83000000
   C     47.16000000    29.52000000   -12.25000000
   C     47.69000000    30.77000000   -11.59000000
   O     48.87000000    31.11000000   -11.71000000
   C     47.10000000    29.64000000   -13.77000000
   C     46.98000000    28.29000000   -14.48000000
   C     46.93000000    28.52000000   -15.99000000
   C     46.67000000    27.28000000   -16.84000000
   N     45.36000000    26.67000000   -16.57000000
   H     45.12000000    29.03000000   -12.55000000
   H     47.85000000    28.71000000   -12.02000000
   H     48.07000000    30.03000000   -14.09000000
   H     46.34000000    30.38000000   -14.03000000
   H     45.99000000    27.98000000   -14.13000000
   H     47.80000000    27.66000000   -14.15000000
   H     47.85000000    28.99000000   -16.35000000
   H     46.17000000    29.26000000   -16.23000000
   H     47.29000000    26.43000000   -16.57000000
   H     46.80000000    27.48000000   -17.91000000
   H     45.48000000    26.19000000   -15.69000000
   H     44.65000000    27.36000000   -16.39000000
   H     45.07000000    26.03000000   -17.29000000
   N     46.87000000    31.55000000   -10.88000000
   C     47.13000000    32.74000000   -10.09000000
   C     46.92000000    32.57000000    -8.59000000
   O     47.75000000    33.03000000    -7.82000000
   C     46.25000000    33.88000000   -10.60000000
   C     46.68000000    34.29000000   -12.00000000
   C     45.60000000    35.06000000   -12.75000000
   O     44.38000000    34.78000000   -12.72000000
   O     46.03000000    35.94000000   -13.53000000
   H     45.92000000    31.23000000   -10.75000000
   H     48.13000000    33.16000000   -10.17000000
   H     46.31000000    34.73000000    -9.91000000
   H     45.21000000    33.56000000   -10.59000000
   H     46.87000000    33.51000000   -12.74000000
   H     47.64000000    34.81000000   -11.93000000
   N     45.91000000    31.80000000    -8.17000000
   C     45.90000000    31.25000000    -6.84000000
   H     45.25500000    31.85500000    -6.20200000
   H     45.52300000    30.22800000    -6.87200000
   H     46.91300000    31.25200000    -6.43800000
   H     45.09000000    31.65000000    -8.75000000
  Ca     43.57000000    36.69000000   -14.27000000
   O     41.36000000    35.18000000   -13.95000000
   H     40.59000000    35.66000000   -13.66000000
   H     41.03000000    34.58000000   -14.62000000
   O     44.30000000    34.91000000   -15.97000000
   H     44.61000000    35.56000000   -16.60000000
   H     44.57000000    34.07000000   -16.35000000

Ca 1.00



