%chk=loop1.apoCaM-CA-Ng.Init293.run12.water3.chk
%nprocshared=20
%mem=10GB
%nosave
#b3lyp/svp scf=(tight,noincore,xqc) Test 
#IOP(5/87=12) Density=Current Pop=(MK,readradii) iop(6/33=2) iop(6/42=6)

loop1.apoCaM-CA-Ng.Init293.run12.water3 

   0  1 
   C     28.40000000    16.31000000    25.24000000
   C     28.04000000    14.92000000    24.74000000
   O     28.63000000    14.32000000    23.85000000
   H     29.31000000    16.64900000    24.74500000
   H     27.58600000    17.00000000    25.01500000
   H     28.56300000    16.27800000    26.31700000
   N     27.03000000    14.35000000    25.41000000
   C     26.56000000    12.99000000    25.22000000
   C     25.52000000    12.94000000    24.11000000
   O     24.78000000    11.96000000    24.14000000
   C     25.94000000    12.44000000    26.50000000
   C     24.67000000    13.13000000    26.99000000
   O     24.41000000    14.35000000    26.85000000
   O     23.78000000    12.38000000    27.43000000
   H     26.52000000    14.92000000    26.06000000
   H     27.43000000    12.38000000    24.99000000
   H     26.73000000    12.53000000    27.25000000
   H     25.82000000    11.36000000    26.40000000
   N     25.29000000    13.91000000    23.22000000
   C     24.20000000    14.01000000    22.27000000
   C     24.70000000    14.35000000    20.88000000
   O     25.23000000    15.46000000    20.76000000
   C     23.29000000    15.16000000    22.68000000
   C     22.61000000    14.88000000    24.02000000
   C     21.57000000    15.95000000    24.34000000
   C     20.98000000    15.95000000    25.74000000
   N     21.97000000    15.94000000    26.83000000
   H     26.00000000    14.62000000    23.21000000
   H     23.58000000    13.11000000    22.32000000
   H     22.49000000    15.32000000    21.96000000
   H     23.81000000    16.12000000    22.67000000
   H     23.41000000    14.81000000    24.76000000
   H     22.06000000    13.94000000    23.98000000
   H     20.83000000    15.91000000    23.54000000
   H     22.14000000    16.88000000    24.20000000
   H     20.33000000    15.08000000    25.79000000
   H     20.30000000    16.79000000    25.91000000
   H     21.49000000    16.08000000    27.71000000
   H     22.59000000    15.14000000    26.91000000
   H     22.55000000    16.76000000    26.70000000
   N     24.78000000    13.51000000    19.84000000
   C     24.24000000    12.18000000    19.72000000
   C     22.72000000    12.17000000    19.56000000
   O     22.07000000    13.12000000    19.99000000
   C     24.68000000    11.11000000    20.72000000
   C     26.17000000    10.94000000    21.00000000
   O     26.98000000    11.76000000    20.53000000
   O     26.61000000     9.92000000    21.57000000
   H     25.33000000    13.85000000    19.06000000
   H     24.59000000    11.83000000    18.75000000
   H     24.37000000    10.17000000    20.27000000
   H     24.07000000    11.22000000    21.61000000
   N     21.99000000    11.20000000    19.00000000
   C     22.46000000    10.19000000    18.07000000
   C     21.59000000     8.95000000    18.04000000
   O     20.37000000     9.09000000    18.15000000
   H     21.00000000    11.35000000    19.08000000
   H     23.48000000     9.89000000    18.32000000
   H     22.40000000    10.54000000    17.03000000
   N     22.06000000     7.71000000    17.87000000
   C     23.46000000     7.39000000    17.69000000
   C     24.20000000     7.22000000    19.01000000
   O     25.41000000     7.44000000    18.92000000
   C     23.44000000     6.20000000    16.75000000
   C     22.52000000     5.08000000    17.24000000
   O     22.36000000     4.94000000    18.47000000
   O     22.06000000     4.27000000    16.41000000
   H     21.38000000     6.98000000    18.03000000
   H     24.09000000     8.10000000    17.15000000
   H     24.44000000     5.83000000    16.54000000
   H     23.03000000     6.59000000    15.82000000
   N     23.63000000     6.96000000    20.19000000
   C     24.32000000     7.11000000    21.45000000
   C     25.60000000     6.30000000    21.63000000
   O     25.60000000     5.08000000    21.46000000
   H     22.62000000     6.97000000    20.24000000
   H     23.59000000     6.74000000    22.17000000
   H     24.60000000     8.15000000    21.58000000
   N     26.65000000     6.99000000    22.07000000
   C     27.95000000     6.48000000    22.47000000
   C     28.70000000     7.49000000    23.32000000
   O     29.00000000     8.57000000    22.81000000
   C     28.79000000     6.19000000    21.23000000
   C     30.11000000     5.49000000    21.55000000
   O     29.00000000     7.29000000    20.37000000
   H     26.57000000     8.00000000    22.14000000
   H     27.76000000     5.57000000    23.03000000
   H     28.30000000     5.45000000    20.60000000
   H     29.08000000     6.80000000    19.55000000
   H     29.89000000     4.44000000    21.70000000
   H     30.79000000     5.66000000    20.71000000
   H     30.58000000     5.81000000    22.48000000
   N     29.09000000     7.21000000    24.56000000
   C     29.94000000     8.08000000    25.35000000
   C     31.04000000     7.26000000    25.99000000
   O     30.92000000     6.82000000    27.13000000
   C     29.12000000     9.00000000    26.25000000
   C     30.01000000     9.87000000    27.13000000
   C     28.19000000     8.30000000    27.24000000
   C     31.06000000    10.65000000    26.33000000
   H     28.80000000     6.33000000    24.96000000
   H     30.42000000     8.74000000    24.62000000
   H     28.51000000     9.70000000    25.67000000
   H     30.43000000     9.31000000    27.96000000
   H     29.34000000    10.62000000    27.55000000
   H     28.76000000     7.68000000    27.93000000
   H     27.70000000     9.07000000    27.84000000
   H     27.51000000     7.72000000    26.61000000
   H     31.41000000    11.40000000    27.03000000
   H     31.83000000     9.90000000    26.18000000
   H     30.70000000    11.03000000    25.38000000
   N     32.11000000     7.15000000    25.20000000
   C     33.34000000     6.48000000    25.60000000
   C     34.54000000     7.26000000    25.09000000
   O     35.66000000     6.91000000    25.46000000
   C     33.48000000     5.01000000    25.22000000
   C     33.39000000     4.74000000    23.72000000
   O     32.43000000     4.30000000    25.85000000
   H     32.00000000     7.39000000    24.23000000
   H     33.40000000     6.40000000    26.68000000
   H     34.44000000     4.74000000    25.65000000
   H     32.69000000     3.38000000    25.86000000
   H     32.47000000     5.23000000    23.41000000
   H     34.30000000     5.14000000    23.29000000
   H     33.42000000     3.66000000    23.54000000
   N     34.39000000     8.41000000    24.42000000
   C     35.34000000     9.29000000    23.78000000
   C     36.13000000     8.58000000    22.69000000
   O     35.82000000     7.47000000    22.28000000
   C     36.22000000    10.00000000    24.81000000
   C     35.54000000    10.44000000    26.10000000
   O     36.87000000    11.16000000    24.35000000
   H     33.45000000     8.58000000    24.10000000
   H     34.77000000    10.15000000    23.43000000
   H     37.00000000     9.29000000    25.09000000
   H     37.43000000    11.59000000    25.01000000
   H     34.63000000    10.96000000    25.79000000
   H     35.23000000     9.65000000    26.79000000
   H     36.16000000    11.17000000    26.62000000
   N     37.12000000     9.30000000    22.14000000
   C     38.11000000     8.78000000    21.22000000
   C     37.69000000     8.37000000    19.81000000
   O     38.35000000     7.49000000    19.27000000
   C     39.40000000     9.58000000    21.35000000
   C     40.24000000     9.13000000    22.54000000
   C     40.76000000     7.70000000    22.65000000
   C     41.61000000     7.53000000    23.90000000
   N     42.94000000     8.14000000    23.70000000
   H     37.25000000    10.24000000    22.48000000
   H     38.41000000     7.79000000    21.56000000
   H     39.15000000    10.64000000    21.38000000
   H     40.06000000     9.48000000    20.48000000
   H     39.78000000     9.41000000    23.48000000
   H     41.04000000     9.88000000    22.53000000
   H     41.40000000     7.49000000    21.79000000
   H     40.04000000     6.89000000    22.56000000
   H     41.74000000     6.47000000    24.12000000
   H     41.04000000     7.97000000    24.72000000
   H     43.45000000     7.64000000    22.99000000
   H     42.99000000     9.14000000    23.55000000
   H     43.43000000     7.95000000    24.56000000
   N     36.72000000     8.96000000    19.10000000
   C     36.00000000    10.19000000    19.34000000
   C     36.70000000    11.40000000    19.94000000
   O     36.29000000    11.90000000    20.98000000
   C     34.60000000     9.84000000    19.85000000
   C     33.50000000    10.80000000    19.40000000
   C     32.09000000    10.37000000    19.81000000
   O     31.74000000    10.03000000    20.95000000
   O     31.21000000    10.24000000    18.93000000
   H     36.39000000     8.45000000    18.29000000
   H     35.84000000    10.60000000    18.34000000
   H     34.64000000     9.70000000    20.93000000
   H     34.35000000     8.84000000    19.50000000
   H     33.51000000    11.10000000    18.36000000
   H     33.80000000    11.69000000    19.95000000
   N     37.80000000    11.83000000    19.30000000
   C     38.62000000    12.96000000    19.68000000
   H     39.54300000    12.94900000    19.10100000
   H     38.07900000    13.88500000    19.48200000
   H     38.85700000    12.89700000    20.74200000
   H     38.10000000    11.37000000    18.45000000
  Ca     29.18000000    10.08000000    20.61000000
   O     27.71000000     8.90000000    18.63000000
   H     27.58000000     9.17000000    17.73000000
   H     26.94000000     8.36000000    18.83000000
   O     29.88000000    12.75000000    19.65000000
   H     29.44000000    13.41000000    20.18000000
   H     30.28000000    13.25000000    18.93000000
   O     29.87000000    11.91000000    22.68000000
   H     29.66000000    12.77000000    23.04000000
   H     30.63000000    11.62000000    23.20000000

Ca 1.00



