%chk=loop1.apoCaM-CA-Ng.Init295.run17.water5.chk
%nprocshared=20
%mem=10GB
%nosave
#b3lyp/svp scf=(tight,noincore,xqc) Test 
#IOP(5/87=12) Density=Current Pop=(MK,readradii) iop(6/33=2) iop(6/42=6)

loop1.apoCaM-CA-Ng.Init295.run17.water5 

   0  1 
   C     69.25000000    51.82000000    56.01000000
   C     68.18000000    50.81000000    55.64000000
   O     67.83000000    49.96000000    56.47000000
   H     70.12300000    51.67200000    55.37500000
   H     68.86300000    52.82900000    55.86600000
   H     69.53300000    51.68400000    57.05400000
   N     67.75000000    50.90000000    54.38000000
   C     66.74000000    50.02000000    53.84000000
   C     65.44000000    49.92000000    54.62000000
   O     64.71000000    48.93000000    54.57000000
   C     67.38000000    48.67000000    53.53000000
   C     66.50000000    47.72000000    52.72000000
   O     66.63000000    46.48000000    52.65000000
   O     65.74000000    48.33000000    51.94000000
   H     68.19000000    51.60000000    53.79000000
   H     66.51000000    50.45000000    52.86000000
   H     67.58000000    48.20000000    54.49000000
   H     68.31000000    48.79000000    52.98000000
   N     64.99000000    51.02000000    55.24000000
   C     63.81000000    51.21000000    56.06000000
   C     62.70000000    52.04000000    55.42000000
   O     61.52000000    51.97000000    55.77000000
   C     64.18000000    51.85000000    57.39000000
   C     64.89000000    50.84000000    58.28000000
   C     65.04000000    51.52000000    59.64000000
   C     65.92000000    52.77000000    59.60000000
   N     66.12000000    53.26000000    60.97000000
   H     65.52000000    51.83000000    54.97000000
   H     63.30000000    50.25000000    56.16000000
   H     63.26000000    52.15000000    57.89000000
   H     64.79000000    52.73000000    57.17000000
   H     65.85000000    50.65000000    57.81000000
   H     64.30000000    49.93000000    58.42000000
   H     65.43000000    50.78000000    60.35000000
   H     64.08000000    51.77000000    60.10000000
   H     65.52000000    53.46000000    58.86000000
   H     66.87000000    52.44000000    59.19000000
   H     66.81000000    54.00000000    60.92000000
   H     65.24000000    53.57000000    61.36000000
   H     66.39000000    52.53000000    61.62000000
   N     63.09000000    52.84000000    54.43000000
   C     62.27000000    53.91000000    53.91000000
   C     61.56000000    53.66000000    52.58000000
   O     60.37000000    53.94000000    52.45000000
   C     62.97000000    55.27000000    53.89000000
   C     62.13000000    56.33000000    53.21000000
   O     62.36000000    56.70000000    52.04000000
   O     61.10000000    56.82000000    53.72000000
   H     64.09000000    52.96000000    54.34000000
   H     61.50000000    54.11000000    54.66000000
   H     63.83000000    55.14000000    53.24000000
   H     63.43000000    55.66000000    54.80000000
   N     62.30000000    53.24000000    51.56000000
   C     61.82000000    53.16000000    50.20000000
   C     62.31000000    54.20000000    49.20000000
   O     61.94000000    54.12000000    48.03000000
   H     63.28000000    53.05000000    51.75000000
   H     60.75000000    53.37000000    50.14000000
   H     61.91000000    52.22000000    49.66000000
   N     63.13000000    55.14000000    49.68000000
   C     64.06000000    55.97000000    48.95000000
   C     65.18000000    56.46000000    49.86000000
   O     66.30000000    56.55000000    49.36000000
   C     63.41000000    57.12000000    48.18000000
   C     62.49000000    57.94000000    49.07000000
   O     61.25000000    57.95000000    48.89000000
   O     62.92000000    58.50000000    50.09000000
   H     63.34000000    55.09000000    50.67000000
   H     64.57000000    55.32000000    48.24000000
   H     62.76000000    56.71000000    47.41000000
   H     64.24000000    57.69000000    47.76000000
   N     65.02000000    56.85000000    51.13000000
   C     66.08000000    57.14000000    52.07000000
   C     67.16000000    56.11000000    52.34000000
   O     66.87000000    54.91000000    52.36000000
   H     64.04000000    56.85000000    51.41000000
   H     65.56000000    57.29000000    53.02000000
   H     66.63000000    58.05000000    51.80000000
   N     68.37000000    56.53000000    52.69000000
   C     69.50000000    55.69000000    53.04000000
   C     70.80000000    55.97000000    52.30000000
   O     70.96000000    57.02000000    51.67000000
   C     69.80000000    55.72000000    54.54000000
   C     70.09000000    57.11000000    55.10000000
   O     68.66000000    55.25000000    55.22000000
   H     68.54000000    57.53000000    52.69000000
   H     69.27000000    54.66000000    52.78000000
   H     70.63000000    55.05000000    54.76000000
   H     68.86000000    55.44000000    56.14000000
   H     70.63000000    56.95000000    56.04000000
   H     70.75000000    57.67000000    54.43000000
   H     69.13000000    57.60000000    55.26000000
   N     71.68000000    54.97000000    52.27000000
   C     73.05000000    55.16000000    51.84000000
   C     73.21000000    55.11000000    50.33000000
   O     74.05000000    55.83000000    49.79000000
   C     73.93000000    54.22000000    52.65000000
   C     75.32000000    54.83000000    52.81000000
   C     74.00000000    52.76000000    52.19000000
   C     75.37000000    56.21000000    53.46000000
   H     71.46000000    54.11000000    52.76000000
   H     73.22000000    56.16000000    52.26000000
   H     73.55000000    54.28000000    53.67000000
   H     75.81000000    54.99000000    51.85000000
   H     75.86000000    54.15000000    53.47000000
   H     74.48000000    52.17000000    52.98000000
   H     73.03000000    52.29000000    52.03000000
   H     74.62000000    52.75000000    51.29000000
   H     75.33000000    57.00000000    52.71000000
   H     74.48000000    56.31000000    54.08000000
   H     76.24000000    56.37000000    54.09000000
   N     72.44000000    54.29000000    49.62000000
   C     72.41000000    54.29000000    48.17000000
   C     72.69000000    52.90000000    47.62000000
   O     72.08000000    51.92000000    48.02000000
   C     71.10000000    54.87000000    47.64000000
   C     70.61000000    56.14000000    48.33000000
   O     71.30000000    55.20000000    46.29000000
   H     71.78000000    53.73000000    50.14000000
   H     73.18000000    54.97000000    47.80000000
   H     70.41000000    54.04000000    47.78000000
   H     71.80000000    56.02000000    46.27000000
   H     69.80000000    56.58000000    47.76000000
   H     70.36000000    55.86000000    49.36000000
   H     71.36000000    56.92000000    48.39000000
   N     73.49000000    52.78000000    46.56000000
   C     73.77000000    51.61000000    45.75000000
   C     75.24000000    51.56000000    45.34000000
   O     75.84000000    50.49000000    45.28000000
   C     72.80000000    51.53000000    44.58000000
   C     73.08000000    50.42000000    43.58000000
   O     72.92000000    52.72000000    43.83000000
   H     73.84000000    53.65000000    46.18000000
   H     73.54000000    50.80000000    46.43000000
   H     71.79000000    51.39000000    44.96000000
   H     72.12000000    53.17000000    44.07000000
   H     72.69000000    49.54000000    44.09000000
   H     72.44000000    50.60000000    42.71000000
   H     74.13000000    50.27000000    43.32000000
   N     75.86000000    52.70000000    45.02000000
   C     77.17000000    52.82000000    44.40000000
   C     78.03000000    54.02000000    44.76000000
   O     77.55000000    55.15000000    44.65000000
   C     77.07000000    52.91000000    42.88000000
   C     78.33000000    52.52000000    42.11000000
   C     78.05000000    52.37000000    40.62000000
   C     79.33000000    51.93000000    39.92000000
   N     80.33000000    53.01000000    39.93000000
   H     75.33000000    53.55000000    45.00000000
   H     77.72000000    51.92000000    44.65000000
   H     76.72000000    53.90000000    42.59000000
   H     76.27000000    52.24000000    42.59000000
   H     78.64000000    51.54000000    42.47000000
   H     79.19000000    53.16000000    42.28000000
   H     77.59000000    53.25000000    40.18000000
   H     77.25000000    51.69000000    40.33000000
   H     79.01000000    51.70000000    38.90000000
   H     79.72000000    51.03000000    40.40000000
   H     80.04000000    53.76000000    39.31000000
   H     80.40000000    53.44000000    40.84000000
   H     81.26000000    52.69000000    39.72000000
   N     79.28000000    53.82000000    45.17000000
   C     80.18000000    54.89000000    45.56000000
   C     79.77000000    55.61000000    46.84000000
   O     79.54000000    56.82000000    46.82000000
   C     81.66000000    54.55000000    45.51000000
   C     82.50000000    55.75000000    45.95000000
   C     84.01000000    55.60000000    45.88000000
   O     84.56000000    55.22000000    44.82000000
   O     84.79000000    55.89000000    46.82000000
   H     79.71000000    52.90000000    45.17000000
   H     80.10000000    55.58000000    44.73000000
   H     81.91000000    54.26000000    44.49000000
   H     81.82000000    53.65000000    46.12000000
   H     82.27000000    55.99000000    46.99000000
   H     82.15000000    56.60000000    45.37000000
   N     79.67000000    54.99000000    48.01000000
   C     79.91000000    53.62000000    48.44000000
   H     80.80000000    53.58800000    49.06800000
   H     79.05200000    53.26100000    49.00900000
   H     80.05900000    52.98500000    47.56700000
   H     79.22000000    55.55000000    48.71000000
  Ca     60.52000000    58.44000000    51.36000000
   O     59.42000000    56.01000000    51.13000000
   H     58.67000000    55.57000000    50.73000000
   H     59.82000000    55.35000000    51.69000000
   O     58.43000000    58.57000000    49.57000000
   H     57.58000000    58.99000000    49.51000000
   H     58.32000000    57.74000000    49.11000000
   O     62.13000000    59.82000000    52.90000000
   H     62.81000000    59.43000000    53.46000000
   H     61.91000000    60.64000000    53.34000000
   O     60.42000000    60.81000000    50.15000000
   H     59.78000000    61.52000000    50.16000000
   H     61.26000000    61.24000000    50.34000000
   O     58.34000000    58.65000000    52.71000000
   H     58.13000000    58.93000000    53.60000000
   H     57.50000000    58.40000000    52.33000000

Ca 1.00



