%chk=loop4.apoCaM-CA-Ng.Init31.run11.water5.chk
%nprocshared=20
%mem=10GB
%nosave
#b3lyp/svp scf=(tight,noincore,xqc) Test 
#IOP(5/87=12) Density=Current Pop=(MK,readradii) iop(6/33=2) iop(6/42=6)

loop4.apoCaM-CA-Ng.Init31.run11.water5 

   -3  1 
   C     74.32000000    79.50000000    33.49000000
   C     75.49000000    79.00000000    34.32000000
   O     75.95000000    77.88000000    34.11000000
   H     73.50500000    79.79200000    34.15200000
   H     74.63400000    80.36100000    32.89900000
   H     73.98000000    78.70600000    32.82500000
   N     76.16000000    79.74000000    35.21000000
   C     76.02000000    81.14000000    35.55000000
   C     77.22000000    81.97000000    35.12000000
   O     77.20000000    83.18000000    35.33000000
   C     75.68000000    81.30000000    37.03000000
   C     74.66000000    80.26000000    37.46000000
   O     73.47000000    80.25000000    37.10000000
   O     74.95000000    79.38000000    38.31000000
   H     76.73000000    79.16000000    35.82000000
   H     75.22000000    81.52000000    34.91000000
   H     75.08000000    82.21000000    37.03000000
   H     76.57000000    81.23000000    37.66000000
   N     78.29000000    81.43000000    34.55000000
   C     79.43000000    82.21000000    34.11000000
   C     80.30000000    82.62000000    35.29000000
   O     80.81000000    83.73000000    35.44000000
   C     80.21000000    81.45000000    33.04000000
   C     81.32000000    82.15000000    32.27000000
   C     80.78000000    80.08000000    33.42000000
   C     80.88000000    83.32000000    31.40000000
   H     78.46000000    80.44000000    34.45000000
   H     79.01000000    83.11000000    33.64000000
   H     79.51000000    81.16000000    32.26000000
   H     81.65000000    81.39000000    31.55000000
   H     82.12000000    82.41000000    32.96000000
   H     81.40000000    80.01000000    34.32000000
   H     79.98000000    79.36000000    33.58000000
   H     81.43000000    79.64000000    32.67000000
   H     80.54000000    84.15000000    32.02000000
   H     81.70000000    83.58000000    30.74000000
   H     80.05000000    82.99000000    30.77000000
   N     80.31000000    81.76000000    36.31000000
   C     80.87000000    82.10000000    37.60000000
   C     80.20000000    81.42000000    38.79000000
   O     80.29000000    82.07000000    39.84000000
   C     82.29000000    81.55000000    37.60000000
   C     83.17000000    81.64000000    38.85000000
   O     83.63000000    82.78000000    39.06000000
   O     83.52000000    80.58000000    39.39000000
   H     79.95000000    80.82000000    36.21000000
   H     80.84000000    83.16000000    37.84000000
   H     82.74000000    82.15000000    36.81000000
   H     82.29000000    80.58000000    37.11000000
   N     79.47000000    80.32000000    38.65000000
   C     78.88000000    79.54000000    39.72000000
   C     79.59000000    78.26000000    40.15000000
   O     80.72000000    78.03000000    39.75000000
   H     79.40000000    79.94000000    37.72000000
   H     77.85000000    79.30000000    39.46000000
   H     78.78000000    80.13000000    40.63000000
   N     78.90000000    77.39000000    40.90000000
   C     79.29000000    76.00000000    41.01000000
   C     79.75000000    75.71000000    42.43000000
   O     79.09000000    75.85000000    43.45000000
   C     78.12000000    75.11000000    40.58000000
   C     77.49000000    75.51000000    39.26000000
   O     76.25000000    75.66000000    39.16000000
   O     78.28000000    75.82000000    38.34000000
   H     78.00000000    77.63000000    41.30000000
   H     80.10000000    75.73000000    40.33000000
   H     77.33000000    75.16000000    41.32000000
   H     78.46000000    74.08000000    40.44000000
   N     81.02000000    75.35000000    42.62000000
   C     81.98000000    74.95000000    41.60000000
   C     83.24000000    74.33000000    42.18000000
   O     83.71000000    74.79000000    43.21000000
   H     81.29000000    75.28000000    43.59000000
   H     82.27000000    75.88000000    41.10000000
   H     81.51000000    74.31000000    40.85000000
   N     83.80000000    73.30000000    41.53000000
   C     83.44000000    72.46000000    40.41000000
   C     83.22000000    73.26000000    39.12000000
   O     83.31000000    74.48000000    39.12000000
   C     82.27000000    71.59000000    40.86000000
   C     82.82000000    70.57000000    41.85000000
   C     81.74000000    69.57000000    42.22000000
   N     80.72000000    69.96000000    42.99000000
   O     81.78000000    68.40000000    41.84000000
   H     84.67000000    72.98000000    41.93000000
   H     84.27000000    71.78000000    40.24000000
   H     81.83000000    71.03000000    40.03000000
   H     81.43000000    72.13000000    41.29000000
   H     83.12000000    71.08000000    42.77000000
   H     83.72000000    70.04000000    41.53000000
   H     80.74000000    70.93000000    43.28000000
   H     79.91000000    69.39000000    43.19000000
   N     82.77000000    72.64000000    38.03000000
   C     82.32000000    73.32000000    36.83000000
   C     83.35000000    73.11000000    35.72000000
   O     84.27000000    72.31000000    35.86000000
   C     80.96000000    72.88000000    36.30000000
   C     79.90000000    72.89000000    37.40000000
   C     80.91000000    71.57000000    35.52000000
   H     82.92000000    71.65000000    37.98000000
   H     82.29000000    74.40000000    36.93000000
   H     80.76000000    73.68000000    35.59000000
   H     80.12000000    73.81000000    37.94000000
   H     78.88000000    72.83000000    37.02000000
   H     80.15000000    72.05000000    38.05000000
   H     81.29000000    70.80000000    36.20000000
   H     79.91000000    71.34000000    35.15000000
   H     81.59000000    71.70000000    34.67000000
   N     83.26000000    73.88000000    34.64000000
   C     84.03000000    73.69000000    33.43000000
   C     83.22000000    73.01000000    32.34000000
   O     83.53000000    71.86000000    32.00000000
   C     84.54000000    75.06000000    32.97000000
   C     85.55000000    75.65000000    33.93000000
   N     85.11000000    76.50000000    34.86000000
   O     86.74000000    75.33000000    33.88000000
   H     82.52000000    74.57000000    34.61000000
   H     84.89000000    73.05000000    33.60000000
   H     83.67000000    75.71000000    32.86000000
   H     84.92000000    74.91000000    31.96000000
   H     84.17000000    76.86000000    34.90000000
   H     85.80000000    76.68000000    35.58000000
   N     82.17000000    73.72000000    31.92000000
   C     81.23000000    73.51000000    30.84000000
   C     80.23000000    72.42000000    31.21000000
   O     80.42000000    71.41000000    31.88000000
   C     82.10000000    73.26000000    29.62000000
   C     81.46000000    73.35000000    28.26000000
   C     80.66000000    72.30000000    27.79000000
   C     81.69000000    74.40000000    27.35000000
   C     79.98000000    72.37000000    26.56000000
   C     81.14000000    74.46000000    26.06000000
   C     80.26000000    73.43000000    25.68000000
   O     79.80000000    73.36000000    24.40000000
   H     82.09000000    74.58000000    32.44000000
   H     80.70000000    74.44000000    30.65000000
   H     82.56000000    72.27000000    29.65000000
   H     82.90000000    74.01000000    29.60000000
   H     80.39000000    71.54000000    28.50000000
   H     82.33000000    75.21000000    27.65000000
   H     79.49000000    71.48000000    26.19000000
   H     81.41000000    75.30000000    25.44000000
   H     80.23000000    74.03000000    23.86000000
   N     79.02000000    72.50000000    30.66000000
   C     77.87000000    71.68000000    31.00000000
   C     76.62000000    72.50000000    30.70000000
   O     76.29000000    72.66000000    29.53000000
   C     77.87000000    70.41000000    30.16000000
   C     76.94000000    69.28000000    30.62000000
   C     76.98000000    68.12000000    29.64000000
   O     76.32000000    68.10000000    28.58000000
   O     77.72000000    67.15000000    29.90000000
   H     78.89000000    73.28000000    30.03000000
   H     77.97000000    71.44000000    32.06000000
   H     78.90000000    70.05000000    30.20000000
   H     77.60000000    70.71000000    29.15000000
   H     75.92000000    69.66000000    30.63000000
   H     77.12000000    68.94000000    31.64000000
   N     76.13000000    73.23000000    31.70000000
   C     75.04000000    74.18000000    31.59000000
   C     75.56000000    75.45000000    30.94000000
   O     74.97000000    75.81000000    29.92000000
   C     74.63000000    74.49000000    33.02000000
   C     73.80000000    73.31000000    33.52000000
   C     73.07000000    73.54000000    34.84000000
   O     72.20000000    72.69000000    35.13000000
   O     73.44000000    74.50000000    35.54000000
   H     76.52000000    73.07000000    32.62000000
   H     74.16000000    73.87000000    31.02000000
   H     74.04000000    75.40000000    32.91000000
   H     75.55000000    74.67000000    33.58000000
   H     74.38000000    72.39000000    33.58000000
   H     73.03000000    73.08000000    32.78000000
   N     76.68000000    76.05000000    31.36000000
   C     77.47000000    76.96000000    30.55000000
   H     78.44500000    76.51500000    30.35100000
   H     76.95700000    77.14600000    29.60600000
   H     77.60200000    77.90100000    31.08400000
   H     77.12000000    75.70000000    32.20000000
  Ca     72.57000000    77.97000000    38.11000000
   O     71.31000000    77.01000000    40.71000000
   H     71.74000000    77.35000000    41.49000000
   H     70.99000000    76.15000000    40.97000000
   O     71.80000000    75.42000000    37.46000000
   H     72.35000000    75.05000000    36.76000000
   H     71.54000000    74.66000000    37.99000000
   O     72.34000000    79.65000000    40.18000000
   H     73.07000000    79.92000000    40.73000000
   H     71.67000000    80.32000000    40.33000000
   O     74.21000000    76.90000000    39.99000000
   H     74.90000000    76.36000000    39.61000000
   H     74.36000000    76.85000000    40.94000000
   O     74.05000000    76.78000000    36.23000000
   H     74.78000000    77.06000000    35.68000000
   H     73.93000000    75.86000000    36.01000000

Ca 1.00



