%chk=loop3.holoCaM-CaMKII.run32.water2.chk
%nprocshared=20
%mem=10GB
%nosave
#b3lyp/svp scf=(tight,noincore,xqc) Test 
#IOP(5/87=12) Density=Current Pop=(MK,readradii) iop(6/33=2) iop(6/42=6)

loop3.holoCaM-CaMKII.run32.water2 

   0  1 
   C     85.98000000    43.60000000    25.30000000
   C     86.32000000    42.53000000    26.33000000
   O     87.08000000    41.61000000    26.04000000
   H     85.12400000    44.17900000    25.64700000
   H     86.83600000    44.26200000    25.16700000
   H     85.73500000    43.12600000    24.35000000
   N     85.72000000    42.62000000    27.52000000
   C     85.98000000    41.65000000    28.56000000
   C     84.97000000    40.53000000    28.36000000
   O     83.81000000    40.68000000    28.75000000
   C     85.79000000    42.33000000    29.91000000
   C     85.78000000    41.38000000    31.11000000
   O     86.80000000    40.68000000    31.18000000
   O     84.77000000    41.25000000    31.83000000
   H     85.03000000    43.34000000    27.71000000
   H     86.99000000    41.27000000    28.44000000
   H     84.85000000    42.87000000    29.99000000
   H     86.60000000    43.05000000    30.03000000
   N     85.48000000    39.39000000    27.89000000
   C     84.77000000    38.24000000    27.39000000
   C     84.50000000    37.20000000    28.47000000
   O     83.90000000    36.20000000    28.08000000
   C     85.50000000    37.66000000    26.18000000
   C     85.31000000    38.51000000    24.93000000
   C     85.40000000    37.69000000    23.64000000
   C     84.71000000    38.48000000    22.53000000
   N     85.52000000    39.61000000    22.06000000
   H     86.49000000    39.47000000    27.95000000
   H     83.76000000    38.52000000    27.08000000
   H     85.18000000    36.64000000    26.01000000
   H     86.52000000    37.63000000    26.56000000
   H     85.94000000    39.39000000    25.03000000
   H     84.33000000    38.99000000    25.00000000
   H     84.93000000    36.72000000    23.51000000
   H     86.46000000    37.61000000    23.40000000
   H     83.69000000    38.80000000    22.77000000
   H     84.63000000    37.75000000    21.73000000
   H     85.44000000    39.59000000    21.06000000
   H     85.35000000    40.39000000    22.68000000
   H     86.49000000    39.36000000    22.21000000
   N     85.02000000    37.31000000    29.70000000
   C     84.90000000    36.31000000    30.74000000
   C     84.12000000    36.84000000    31.94000000
   O     83.88000000    36.03000000    32.83000000
   C     86.20000000    35.61000000    31.13000000
   C     87.42000000    36.50000000    31.30000000
   O     87.25000000    37.72000000    31.55000000
   O     88.58000000    36.07000000    31.16000000
   H     85.62000000    38.09000000    29.93000000
   H     84.31000000    35.48000000    30.35000000
   H     86.40000000    34.93000000    30.31000000
   H     86.05000000    35.12000000    32.09000000
   N     83.78000000    38.12000000    31.99000000
   C     82.89000000    38.75000000    32.95000000
   C     83.59000000    38.94000000    34.29000000
   O     82.94000000    39.42000000    35.22000000
   H     84.05000000    38.66000000    31.17000000
   H     81.98000000    38.16000000    32.99000000
   H     82.68000000    39.77000000    32.63000000
   N     84.88000000    38.61000000    34.46000000
   C     85.68000000    39.04000000    35.59000000
   C     85.79000000    40.54000000    35.80000000
   O     85.91000000    40.95000000    36.95000000
   C     87.03000000    38.34000000    35.46000000
   C     88.23000000    39.25000000    35.26000000
   N     88.90000000    39.69000000    36.33000000
   O     88.64000000    39.68000000    34.19000000
   H     85.39000000    38.17000000    33.71000000
   H     85.29000000    38.69000000    36.54000000
   H     87.05000000    37.66000000    34.60000000
   H     87.23000000    37.64000000    36.27000000
   H     88.69000000    39.42000000    37.28000000
   H     89.81000000    40.12000000    36.20000000
   N     85.62000000    41.35000000    34.75000000
   C     85.41000000    42.78000000    34.86000000
   C     86.54000000    43.61000000    34.26000000
   O     86.55000000    44.78000000    34.63000000
   H     85.51000000    40.97000000    33.83000000
   H     85.31000000    43.05000000    35.91000000
   H     84.54000000    43.05000000    34.27000000
   N     87.45000000    43.09000000    33.43000000
   C     88.66000000    43.82000000    33.11000000
   C     89.22000000    43.46000000    31.74000000
   O     89.28000000    42.28000000    31.41000000
   C     89.67000000    43.54000000    34.23000000
   C     89.38000000    43.99000000    35.64000000
   C     89.89000000    45.17000000    36.20000000
   C     88.78000000    43.03000000    36.47000000
   C     89.79000000    45.34000000    37.58000000
   C     88.57000000    43.31000000    37.83000000
   C     89.02000000    44.50000000    38.42000000
   O     88.83000000    44.79000000    39.74000000
   H     87.46000000    42.11000000    33.23000000
   H     88.47000000    44.88000000    33.28000000
   H     90.59000000    44.08000000    34.00000000
   H     89.96000000    42.49000000    34.22000000
   H     90.28000000    45.97000000    35.59000000
   H     88.39000000    42.10000000    36.08000000
   H     90.20000000    46.24000000    38.01000000
   H     88.05000000    42.61000000    38.47000000
   H     88.05000000    44.36000000    40.09000000
   N     89.76000000    44.44000000    31.00000000
   C     90.26000000    44.18000000    29.67000000
   C     91.77000000    43.94000000    29.70000000
   O     92.44000000    44.92000000    29.99000000
   C     89.94000000    45.24000000    28.61000000
   C     88.48000000    45.68000000    28.63000000
   C     90.29000000    44.69000000    27.23000000
   C     88.25000000    46.94000000    27.80000000
   H     89.75000000    45.39000000    31.35000000
   H     89.69000000    43.30000000    29.41000000
   H     90.55000000    46.12000000    28.77000000
   H     88.29000000    45.94000000    29.67000000
   H     87.84000000    44.84000000    28.38000000
   H     90.18000000    43.60000000    27.28000000
   H     89.61000000    45.02000000    26.45000000
   H     91.31000000    45.01000000    27.04000000
   H     88.60000000    46.87000000    26.77000000
   H     87.17000000    47.03000000    27.76000000
   H     88.61000000    47.82000000    28.34000000
   N     92.17000000    42.71000000    29.36000000
   C     93.55000000    42.34000000    29.11000000
   C     93.98000000    42.69000000    27.70000000
   O     93.12000000    42.73000000    26.82000000
   C     93.82000000    40.85000000    29.29000000
   O     93.27000000    40.09000000    28.24000000
   H     91.47000000    41.99000000    29.33000000
   H     94.12000000    42.88000000    29.86000000
   H     93.28000000    40.56000000    30.20000000
   H     94.88000000    40.64000000    29.43000000
   H     93.18000000    39.19000000    28.54000000
   N     95.28000000    42.87000000    27.41000000
   C     95.79000000    43.10000000    26.07000000
   C     95.34000000    42.08000000    25.04000000
   O     95.16000000    42.40000000    23.86000000
   C     97.31000000    43.20000000    26.13000000
   H     95.91000000    42.75000000    28.19000000
   H     95.44000000    44.08000000    25.75000000
   H     97.67000000    42.30000000    26.63000000
   H     97.76000000    43.21000000    25.14000000
   H     97.58000000    44.04000000    26.76000000
   N     95.16000000    40.83000000    25.47000000
   C     94.64000000    39.77000000    24.63000000
   C     93.18000000    39.98000000    24.23000000
   O     92.82000000    39.66000000    23.10000000
   C     94.75000000    38.45000000    25.39000000
   H     95.43000000    40.52000000    26.39000000
   H     95.38000000    39.67000000    23.84000000
   H     93.96000000    38.29000000    26.12000000
   H     94.76000000    37.69000000    24.60000000
   H     95.67000000    38.37000000    25.98000000
   N     92.43000000    40.65000000    25.10000000
   C     91.00000000    40.77000000    24.89000000
   C     90.81000000    41.98000000    23.98000000
   O     89.95000000    41.95000000    23.11000000
   C     90.38000000    41.01000000    26.26000000
   C     89.92000000    39.70000000    26.91000000
   C     89.49000000    39.90000000    28.35000000
   O     88.52000000    39.25000000    28.79000000
   O     90.24000000    40.35000000    29.24000000
   H     92.76000000    40.84000000    26.04000000
   H     90.59000000    39.89000000    24.40000000
   H     89.58000000    41.75000000    26.17000000
   H     91.06000000    41.44000000    26.99000000
   H     90.71000000    38.96000000    26.83000000
   H     89.18000000    39.21000000    26.28000000
   N     91.61000000    43.04000000    24.13000000
   C     91.76000000    44.12000000    23.18000000
   H     92.79900000    44.17600000    22.85600000
   H     91.12000000    43.93700000    22.31700000
   H     91.47500000    45.06100000    23.65100000
   H     92.17000000    43.03000000    24.97000000
  Ca     89.01000000    39.53000000    31.28000000
   O     90.66000000    37.50000000    30.86000000
   H     89.99000000    36.85000000    31.06000000
   H     91.49000000    37.02000000    30.93000000
   O     91.19000000    40.19000000    32.84000000
   H     91.57000000    39.40000000    33.23000000
   H     91.70000000    40.91000000    33.20000000

Ca 1.00



