%chk=loop3.holoCaM.run26.water3.chk
%nprocshared=20
%mem=10GB
%nosave
#b3lyp/svp scf=(tight,noincore,xqc) Test 
#IOP(5/87=12) Density=Current Pop=(MK,readradii) iop(6/33=2) iop(6/42=6)

loop3.holoCaM.run26.water3 

   0  1 
   C     77.30000000    39.40000000    16.30000000
   C     78.45000000    38.65000000    15.65000000
   O     78.99000000    37.70000000    16.22000000
   H     76.42100000    38.75600000    16.33700000
   H     77.58000000    39.68900000    17.31300000
   H     77.07200000    40.29200000    15.71700000
   N     78.96000000    39.06000000    14.49000000
   C     80.22000000    38.67000000    13.89000000
   C     81.39000000    39.27000000    14.65000000
   O     81.77000000    40.39000000    14.33000000
   C     80.23000000    39.10000000    12.42000000
   C     81.52000000    38.77000000    11.69000000
   O     82.28000000    37.90000000    12.16000000
   O     81.70000000    39.23000000    10.54000000
   H     78.54000000    39.88000000    14.07000000
   H     80.38000000    37.59000000    13.85000000
   H     80.06000000    40.17000000    12.32000000
   H     79.38000000    38.61000000    11.95000000
   N     81.85000000    38.55000000    15.68000000
   C     82.65000000    39.12000000    16.74000000
   C     84.04000000    39.56000000    16.31000000
   O     84.45000000    40.68000000    16.62000000
   C     82.61000000    38.22000000    17.97000000
   C     81.38000000    38.21000000    18.88000000
   C     81.59000000    37.24000000    20.04000000
   C     80.36000000    37.01000000    20.91000000
   N     79.42000000    38.15000000    20.96000000
   H     81.34000000    37.69000000    15.80000000
   H     82.16000000    40.04000000    17.07000000
   H     83.54000000    38.36000000    18.52000000
   H     82.71000000    37.19000000    17.61000000
   H     80.64000000    37.79000000    18.22000000
   H     81.08000000    39.21000000    19.21000000
   H     82.38000000    37.55000000    20.72000000
   H     82.04000000    36.30000000    19.74000000
   H     80.69000000    36.55000000    21.84000000
   H     79.73000000    36.26000000    20.43000000
   H     78.61000000    37.93000000    21.51000000
   H     79.89000000    38.98000000    21.28000000
   H     79.03000000    38.25000000    20.03000000
   N     84.82000000    38.77000000    15.58000000
   C     86.02000000    39.31000000    14.96000000
   C     85.82000000    40.07000000    13.66000000
   O     86.87000000    40.53000000    13.20000000
   C     86.87000000    38.09000000    14.60000000
   C     86.28000000    37.02000000    13.71000000
   O     86.98000000    36.20000000    13.07000000
   O     85.04000000    36.85000000    13.72000000
   H     84.52000000    37.84000000    15.33000000
   H     86.52000000    39.97000000    15.66000000
   H     87.09000000    37.59000000    15.55000000
   H     87.84000000    38.29000000    14.14000000
   N     84.67000000    40.16000000    12.99000000
   C     84.52000000    40.90000000    11.74000000
   C     85.05000000    40.20000000    10.50000000
   O     85.74000000    40.91000000     9.76000000
   H     83.84000000    39.95000000    13.52000000
   H     85.03000000    41.85000000    11.89000000
   H     83.49000000    41.14000000    11.48000000
   N     84.88000000    38.90000000    10.29000000
   C     85.26000000    38.20000000     9.08000000
   C     84.29000000    38.08000000     7.91000000
   O     84.59000000    37.46000000     6.89000000
   C     85.85000000    36.83000000     9.42000000
   C     84.79000000    35.74000000     9.50000000
   N     84.92000000    34.67000000     8.72000000
   O     83.79000000    35.89000000    10.20000000
   H     84.28000000    38.40000000    10.94000000
   H     86.10000000    38.72000000     8.61000000
   H     86.34000000    36.88000000    10.39000000
   H     86.64000000    36.57000000     8.72000000
   H     85.79000000    34.42000000     8.28000000
   H     84.26000000    33.91000000     8.68000000
   N     83.09000000    38.63000000     8.06000000
   C     81.91000000    38.67000000     7.21000000
   C     80.94000000    37.54000000     7.55000000
   O     79.94000000    37.46000000     6.83000000
   H     83.00000000    39.04000000     8.98000000
   H     82.22000000    38.57000000     6.17000000
   H     81.37000000    39.59000000     7.44000000
   N     81.09000000    36.66000000     8.54000000
   C     80.26000000    35.50000000     8.79000000
   C     80.07000000    35.20000000    10.27000000
   O     80.92000000    35.48000000    11.11000000
   C     80.86000000    34.26000000     8.13000000
   C     81.10000000    34.20000000     6.64000000
   C     82.38000000    34.15000000     6.09000000
   C     79.97000000    34.06000000     5.82000000
   C     82.55000000    33.98000000     4.71000000
   C     80.14000000    33.85000000     4.45000000
   C     81.43000000    33.84000000     3.86000000
   O     81.57000000    33.49000000     2.55000000
   H     81.89000000    36.78000000     9.14000000
   H     79.28000000    35.76000000     8.39000000
   H     80.37000000    33.35000000     8.48000000
   H     81.83000000    34.16000000     8.62000000
   H     83.26000000    34.35000000     6.69000000
   H     78.99000000    34.01000000     6.26000000
   H     83.56000000    34.00000000     4.34000000
   H     79.36000000    33.64000000     3.74000000
   H     80.76000000    33.14000000     2.18000000
   N     78.98000000    34.51000000    10.62000000
   C     78.69000000    34.09000000    11.97000000
   C     78.84000000    32.57000000    12.04000000
   O     78.31000000    31.75000000    11.29000000
   C     77.30000000    34.58000000    12.38000000
   C     77.13000000    36.07000000    12.07000000
   C     77.02000000    34.31000000    13.86000000
   C     75.79000000    36.69000000    12.47000000
   H     78.20000000    34.36000000     9.99000000
   H     79.47000000    34.46000000    12.63000000
   H     76.55000000    34.16000000    11.72000000
   H     77.20000000    36.18000000    10.99000000
   H     77.94000000    36.66000000    12.50000000
   H     77.21000000    33.26000000    14.11000000
   H     77.66000000    34.88000000    14.53000000
   H     75.97000000    34.51000000    14.08000000
   H     74.99000000    35.96000000    12.40000000
   H     75.79000000    36.97000000    13.52000000
   H     75.53000000    37.62000000    11.96000000
   N     79.43000000    32.12000000    13.14000000
   C     79.78000000    30.76000000    13.53000000
   C     79.00000000    30.28000000    14.74000000
   O     78.31000000    31.07000000    15.39000000
   C     81.27000000    30.52000000    13.70000000
   O     81.75000000    31.26000000    14.80000000
   H     79.71000000    32.84000000    13.79000000
   H     79.47000000    30.17000000    12.67000000
   H     81.78000000    30.88000000    12.81000000
   H     81.48000000    29.47000000    13.93000000
   H     81.72000000    32.20000000    14.60000000
   N     78.99000000    28.98000000    15.03000000
   C     78.27000000    28.46000000    16.17000000
   C     78.70000000    29.20000000    17.43000000
   O     77.81000000    29.74000000    18.08000000
   C     78.44000000    26.96000000    16.40000000
   H     79.56000000    28.33000000    14.51000000
   H     77.20000000    28.64000000    16.08000000
   H     79.50000000    26.76000000    16.51000000
   H     77.89000000    26.62000000    17.28000000
   H     78.08000000    26.42000000    15.53000000
   N     79.99000000    29.36000000    17.72000000
   C     80.54000000    30.12000000    18.84000000
   C     80.09000000    31.57000000    18.94000000
   O     80.25000000    32.18000000    19.99000000
   C     82.05000000    29.97000000    18.67000000
   H     80.63000000    28.98000000    17.03000000
   H     80.17000000    29.49000000    19.65000000
   H     82.67000000    29.89000000    19.56000000
   H     82.16000000    28.92000000    18.40000000
   H     82.42000000    30.67000000    17.93000000
   N     79.48000000    32.09000000    17.87000000
   C     78.83000000    33.38000000    17.90000000
   C     77.31000000    33.38000000    17.92000000
   O     76.76000000    34.34000000    18.45000000
   C     79.22000000    34.12000000    16.62000000
   C     80.64000000    34.68000000    16.69000000
   C     81.27000000    34.88000000    15.32000000
   O     81.05000000    34.06000000    14.40000000
   O     82.10000000    35.80000000    15.19000000
   H     79.30000000    31.55000000    17.04000000
   H     79.07000000    33.91000000    18.83000000
   H     78.48000000    34.91000000    16.50000000
   H     79.15000000    33.43000000    15.78000000
   H     81.22000000    34.06000000    17.37000000
   H     80.64000000    35.65000000    17.18000000
   N     76.67000000    32.32000000    17.44000000
   C     75.23000000    32.22000000    17.29000000
   H     74.78000000    33.20100000    17.44300000
   H     74.99200000    31.86400000    16.28800000
   H     74.83500000    31.52100000    18.02700000
   H     77.17000000    31.52000000    17.09000000
  Ca     83.01000000    35.51000000    12.88000000
   O     85.70000000    34.32000000    12.03000000
   H     85.93000000    34.17000000    11.12000000
   H     86.29000000    35.02000000    12.32000000
   O     84.09000000    33.46000000    14.31000000
   H     84.00000000    33.40000000    15.26000000
   H     85.03000000    33.39000000    14.16000000
   O     82.91000000    33.24000000    11.61000000
   H     82.57000000    32.83000000    10.81000000
   H     83.69000000    32.73000000    11.83000000

Ca 1.00



