%chk=loop4.apoCaM-CA-Ng.Init293.run47.water3.chk
%nprocshared=20
%mem=10GB
%nosave
#b3lyp/svp scf=(tight,noincore,xqc) Test 
#IOP(5/87=12) Density=Current Pop=(MK,readradii) iop(6/33=2) iop(6/42=6)

loop4.apoCaM-CA-Ng.Init293.run47.water3 

   -3  1 
   C     42.09000000    74.35000000    65.12000000
   C     41.96000000    74.23000000    63.61000000
   O     41.72000000    75.22000000    62.92000000
   H     42.62700000    75.26600000    65.36600000
   H     41.09700000    74.37900000    65.57000000
   H     42.64000000    73.49200000    65.50700000
   N     42.18000000    73.02000000    63.08000000
   C     42.25000000    72.55000000    61.71000000
   C     43.15000000    73.25000000    60.70000000
   O     43.14000000    72.88000000    59.53000000
   C     40.86000000    72.30000000    61.14000000
   C     39.90000000    73.49000000    61.11000000
   O     40.20000000    74.47000000    60.40000000
   O     38.81000000    73.44000000    61.73000000
   H     42.40000000    72.32000000    63.78000000
   H     42.68000000    71.55000000    61.71000000
   H     40.51000000    71.55000000    61.85000000
   H     40.86000000    71.79000000    60.18000000
   N     43.81000000    74.35000000    61.08000000
   C     44.49000000    75.21000000    60.14000000
   C     43.44000000    75.83000000    59.23000000
   O     42.49000000    76.41000000    59.75000000
   C     45.32000000    76.23000000    60.92000000
   C     45.83000000    77.33000000    60.00000000
   C     46.40000000    75.68000000    61.84000000
   C     47.05000000    76.96000000    59.16000000
   H     43.50000000    74.81000000    61.92000000
   H     45.19000000    74.60000000    59.56000000
   H     44.65000000    76.69000000    61.65000000
   H     46.04000000    78.19000000    60.63000000
   H     44.97000000    77.66000000    59.41000000
   H     47.30000000    75.43000000    61.27000000
   H     46.69000000    76.31000000    62.68000000
   H     46.08000000    74.72000000    62.24000000
   H     46.87000000    75.93000000    58.85000000
   H     47.02000000    77.60000000    58.28000000
   H     48.02000000    77.08000000    59.65000000
   N     43.67000000    75.80000000    57.91000000
   C     42.95000000    76.43000000    56.82000000
   C     41.54000000    75.89000000    56.63000000
   O     41.43000000    74.68000000    56.45000000
   C     43.80000000    76.52000000    55.56000000
   C     44.22000000    75.17000000    55.00000000
   O     45.29000000    74.60000000    55.30000000
   O     43.42000000    74.77000000    54.13000000
   H     44.46000000    75.23000000    57.67000000
   H     42.74000000    77.46000000    57.12000000
   H     44.65000000    77.14000000    55.83000000
   H     43.18000000    77.04000000    54.83000000
   N     40.50000000    76.72000000    56.51000000
   C     40.44000000    78.16000000    56.57000000
   C     40.85000000    78.74000000    57.92000000
   O     40.52000000    78.12000000    58.93000000
   H     39.73000000    76.23000000    56.08000000
   H     39.40000000    78.43000000    56.40000000
   H     41.01000000    78.66000000    55.78000000
   N     41.51000000    79.90000000    58.00000000
   C     41.75000000    80.89000000    56.97000000
   C     42.94000000    80.64000000    56.05000000
   O     42.72000000    80.71000000    54.84000000
   C     41.96000000    82.26000000    57.61000000
   C     41.88000000    83.43000000    56.64000000
   O     42.31000000    84.53000000    57.07000000
   O     41.45000000    83.36000000    55.47000000
   H     41.63000000    80.23000000    58.95000000
   H     40.86000000    80.87000000    56.34000000
   H     42.97000000    82.29000000    58.01000000
   H     41.15000000    82.36000000    58.34000000
   N     44.04000000    80.02000000    56.47000000
   C     44.66000000    79.98000000    57.78000000
   C     45.87000000    80.91000000    57.82000000
   O     46.47000000    81.01000000    56.76000000
   H     44.56000000    79.61000000    55.71000000
   H     44.98000000    78.96000000    57.97000000
   H     44.01000000    80.30000000    58.59000000
   N     46.07000000    81.59000000    58.95000000
   C     47.09000000    82.60000000    59.12000000
   C     47.74000000    82.78000000    60.48000000
   O     48.69000000    83.53000000    60.68000000
   C     46.42000000    83.94000000    58.83000000
   C     45.28000000    84.36000000    59.76000000
   C     44.88000000    85.81000000    59.51000000
   N     44.03000000    86.15000000    58.54000000
   O     45.40000000    86.72000000    60.14000000
   H     45.38000000    81.44000000    59.68000000
   H     47.86000000    82.30000000    58.41000000
   H     46.10000000    83.98000000    57.79000000
   H     47.18000000    84.71000000    58.95000000
   H     45.46000000    84.22000000    60.82000000
   H     44.49000000    83.64000000    59.53000000
   H     43.50000000    85.46000000    58.03000000
   H     43.67000000    87.09000000    58.56000000
   N     47.15000000    82.18000000    61.52000000
   C     47.68000000    82.31000000    62.87000000
   C     46.49000000    82.18000000    63.80000000
   O     45.59000000    81.37000000    63.59000000
   C     48.75000000    81.24000000    63.08000000
   C     48.36000000    79.77000000    62.88000000
   C     49.27000000    81.53000000    64.48000000
   H     46.46000000    81.50000000    61.24000000
   H     47.97000000    83.34000000    63.09000000
   H     49.57000000    81.44000000    62.40000000
   H     47.53000000    79.54000000    63.55000000
   H     48.03000000    79.68000000    61.85000000
   H     49.24000000    79.14000000    62.99000000
   H     50.19000000    81.03000000    64.78000000
   H     49.63000000    82.56000000    64.59000000
   H     48.61000000    81.15000000    65.26000000
   N     46.52000000    82.99000000    64.86000000
   C     45.48000000    82.96000000    65.88000000
   C     44.11000000    83.54000000    65.53000000
   O     43.13000000    83.25000000    66.22000000
   C     46.07000000    83.60000000    67.13000000
   C     47.25000000    82.84000000    67.73000000
   N     48.51000000    83.19000000    67.47000000
   O     47.09000000    81.88000000    68.48000000
   H     47.20000000    83.73000000    64.95000000
   H     45.18000000    81.95000000    66.15000000
   H     45.33000000    83.52000000    67.92000000
   H     46.24000000    84.66000000    66.94000000
   H     48.71000000    84.00000000    66.90000000
   H     49.25000000    82.82000000    68.05000000
   N     44.04000000    84.34000000    64.47000000
   C     42.85000000    85.00000000    63.96000000
   C     41.78000000    84.02000000    63.49000000
   O     41.97000000    83.28000000    62.52000000
   C     43.17000000    86.03000000    62.88000000
   C     42.05000000    86.97000000    62.50000000
   C     41.48000000    87.00000000    61.22000000
   C     41.68000000    87.98000000    63.40000000
   C     40.49000000    87.94000000    60.91000000
   C     40.81000000    89.01000000    63.03000000
   C     40.11000000    88.95000000    61.81000000
   O     39.11000000    89.86000000    61.60000000
   H     44.88000000    84.49000000    63.93000000
   H     42.39000000    85.49000000    64.81000000
   H     43.51000000    85.56000000    61.95000000
   H     43.95000000    86.71000000    63.19000000
   H     41.85000000    86.25000000    60.53000000
   H     42.17000000    88.02000000    64.36000000
   H     39.89000000    87.78000000    60.03000000
   H     40.61000000    89.83000000    63.71000000
   H     38.54000000    89.63000000    60.87000000
   N     40.66000000    84.02000000    64.21000000
   C     39.48000000    83.18000000    64.16000000
   C     39.74000000    81.74000000    64.61000000
   O     38.87000000    80.89000000    64.43000000
   C     38.88000000    83.28000000    62.76000000
   C     38.56000000    84.74000000    62.45000000
   C     37.94000000    84.88000000    61.07000000
   O     36.81000000    85.39000000    60.88000000
   O     38.61000000    84.48000000    60.09000000
   H     40.65000000    84.69000000    64.97000000
   H     38.84000000    83.66000000    64.89000000
   H     37.95000000    82.72000000    62.64000000
   H     39.53000000    82.81000000    62.02000000
   H     39.49000000    85.30000000    62.45000000
   H     37.86000000    85.09000000    63.20000000
   N     40.90000000    81.45000000    65.18000000
   C     41.04000000    80.20000000    65.91000000
   C     40.93000000    80.42000000    67.41000000
   O     40.42000000    79.52000000    68.07000000
   C     42.36000000    79.52000000    65.60000000
   C     42.83000000    79.40000000    64.15000000
   C     41.93000000    78.59000000    63.23000000
   O     42.24000000    78.64000000    62.02000000
   O     40.98000000    77.91000000    63.68000000
   H     41.58000000    82.20000000    65.29000000
   H     40.23000000    79.50000000    65.70000000
   H     42.42000000    78.54000000    66.08000000
   H     43.09000000    80.05000000    66.21000000
   H     43.84000000    79.01000000    64.24000000
   H     42.99000000    80.41000000    63.76000000
   N     41.31000000    81.60000000    67.92000000
   C     41.37000000    81.99000000    69.31000000
   H     41.57100000    83.05900000    69.37800000
   H     40.41800000    81.76800000    69.79200000
   H     42.16700000    81.43900000    69.80900000
   H     41.72000000    82.26000000    67.28000000
  Ca     40.46000000    76.92000000    61.29000000
   O     38.11000000    75.91000000    62.57000000
   H     37.16000000    75.98000000    62.45000000
   H     38.30000000    74.98000000    62.46000000
   O     38.99000000    79.11000000    61.77000000
   H     38.91000000    79.61000000    62.59000000
   H     38.94000000    79.77000000    61.08000000
   O     38.30000000    76.76000000    59.77000000
   H     37.44000000    76.68000000    60.20000000
   H     38.13000000    77.24000000    58.96000000

Ca 1.00



