%chk=loop1.apoCaM-CA-Ng.Init295.run65.water5.chk
%nprocshared=20
%mem=10GB
%nosave
#b3lyp/svp scf=(tight,noincore,xqc) Test 
#IOP(5/87=12) Density=Current Pop=(MK,readradii) iop(6/33=2) iop(6/42=6)

loop1.apoCaM-CA-Ng.Init295.run65.water5 

   0  1 
   C     80.88000000    91.46000000    47.74000000
   C     79.67000000    91.94000000    46.95000000
   O     78.62000000    91.30000000    46.91000000
   H     81.68100000    92.19500000    47.66000000
   H     80.60500000    91.33600000    48.78700000
   H     81.22200000    90.50600000    47.33800000
   N     79.72000000    93.16000000    46.40000000
   C     78.73000000    93.72000000    45.50000000
   C     79.21000000    93.57000000    44.07000000
   O     80.33000000    93.15000000    43.78000000
   C     78.54000000    95.20000000    45.85000000
   C     78.24000000    95.56000000    47.29000000
   O     79.17000000    96.06000000    47.97000000
   O     77.14000000    95.26000000    47.79000000
   H     80.57000000    93.70000000    46.46000000
   H     77.81000000    93.18000000    45.69000000
   H     77.72000000    95.55000000    45.22000000
   H     79.47000000    95.68000000    45.56000000
   N     78.32000000    93.94000000    43.15000000
   C     78.52000000    93.89000000    41.71000000
   C     78.86000000    95.23000000    41.07000000
   O     79.48000000    95.22000000    40.01000000
   C     77.34000000    93.23000000    41.01000000
   C     77.53000000    92.60000000    39.63000000
   C     76.20000000    92.07000000    39.09000000
   C     76.22000000    91.55000000    37.65000000
   N     75.00000000    90.80000000    37.33000000
   H     77.44000000    94.34000000    43.45000000
   H     79.38000000    93.25000000    41.53000000
   H     76.52000000    93.95000000    40.96000000
   H     77.00000000    92.41000000    41.65000000
   H     78.29000000    91.83000000    39.75000000
   H     77.96000000    93.41000000    39.05000000
   H     75.40000000    92.80000000    39.18000000
   H     75.97000000    91.24000000    39.75000000
   H     77.11000000    90.95000000    37.46000000
   H     76.27000000    92.40000000    36.97000000
   H     75.21000000    90.39000000    36.42000000
   H     74.79000000    89.96000000    37.85000000
   H     74.21000000    91.41000000    37.20000000
   N     78.58000000    96.37000000    41.71000000
   C     79.08000000    97.68000000    41.36000000
   C     79.24000000    98.50000000    42.63000000
   O     78.54000000    98.31000000    43.62000000
   C     78.16000000    98.36000000    40.35000000
   C     78.68000000    99.60000000    39.63000000
   O     77.98000000   100.27000000    38.84000000
   O     79.83000000   100.00000000    39.90000000
   H     78.15000000    96.28000000    42.62000000
   H     80.07000000    97.48000000    40.96000000
   H     77.26000000    98.55000000    40.92000000
   H     77.82000000    97.63000000    39.62000000
   N     80.26000000    99.36000000    42.69000000
   C     80.55000000   100.24000000    43.80000000
   C     81.43000000   101.41000000    43.35000000
   O     82.40000000   101.34000000    42.61000000
   H     80.80000000    99.53000000    41.85000000
   H     80.95000000    99.64000000    44.62000000
   H     79.60000000   100.68000000    44.10000000
   N     80.95000000   102.59000000    43.74000000
   C     81.39000000   103.90000000    43.31000000
   C     81.57000000   104.75000000    44.55000000
   O     81.07000000   104.43000000    45.63000000
   C     80.47000000   104.49000000    42.24000000
   C     80.34000000   103.60000000    41.01000000
   O     81.32000000   103.41000000    40.27000000
   O     79.27000000   102.98000000    40.79000000
   H     80.07000000   102.66000000    44.23000000
   H     82.39000000   103.74000000    42.90000000
   H     80.98000000   105.43000000    42.04000000
   H     79.48000000   104.81000000    42.58000000
   N     82.32000000   105.86000000    44.50000000
   C     82.52000000   106.61000000    45.72000000
   C     83.47000000   105.97000000    46.73000000
   O     83.99000000   104.89000000    46.48000000
   H     82.74000000   106.21000000    43.65000000
   H     81.56000000   106.86000000    46.18000000
   H     82.98000000   107.59000000    45.57000000
   N     83.64000000   106.64000000    47.87000000
   C     84.35000000   106.15000000    49.03000000
   C     85.40000000   107.13000000    49.53000000
   O     85.44000000   108.27000000    49.08000000
   C     83.41000000   105.81000000    50.18000000
   C     82.98000000   106.94000000    51.12000000
   O     82.25000000   105.16000000    49.71000000
   H     83.28000000   107.58000000    47.99000000
   H     84.92000000   105.28000000    48.70000000
   H     84.00000000   105.19000000    50.86000000
   H     82.47000000   104.24000000    49.55000000
   H     83.77000000   107.17000000    51.82000000
   H     82.68000000   107.80000000    50.51000000
   H     82.17000000   106.66000000    51.80000000
   N     86.29000000   106.71000000    50.43000000
   C     87.32000000   107.51000000    51.05000000
   C     88.44000000   107.96000000    50.12000000
   O     89.06000000   109.00000000    50.36000000
   C     87.83000000   106.97000000    52.38000000
   C     88.44000000   105.57000000    52.26000000
   C     86.68000000   107.09000000    53.37000000
   C     88.98000000   104.93000000    53.53000000
   H     86.21000000   105.76000000    50.78000000
   H     86.83000000   108.46000000    51.28000000
   H     88.62000000   107.59000000    52.80000000
   H     89.27000000   105.69000000    51.56000000
   H     87.75000000   104.89000000    51.76000000
   H     85.78000000   106.60000000    52.99000000
   H     86.96000000   106.63000000    54.32000000
   H     86.37000000   108.13000000    53.49000000
   H     88.19000000   104.80000000    54.26000000
   H     89.35000000   103.94000000    53.23000000
   H     89.84000000   105.51000000    53.86000000
   N     88.81000000   107.14000000    49.14000000
   C     89.81000000   107.47000000    48.14000000
   C     90.49000000   106.14000000    47.84000000
   O     89.93000000   105.07000000    47.64000000
   C     89.08000000   108.00000000    46.91000000
   C     88.11000000   109.16000000    47.10000000
   O     90.03000000   108.46000000    45.98000000
   H     88.42000000   106.21000000    49.11000000
   H     90.53000000   108.23000000    48.48000000
   H     88.65000000   107.09000000    46.49000000
   H     90.04000000   109.42000000    45.96000000
   H     87.25000000   108.83000000    47.68000000
   H     88.68000000   109.85000000    47.72000000
   H     87.87000000   109.55000000    46.11000000
   N     91.82000000   106.25000000    47.79000000
   C     92.79000000   105.23000000    47.49000000
   C     92.89000000   104.22000000    48.62000000
   O     93.06000000   103.05000000    48.29000000
   C     94.10000000   105.89000000    47.08000000
   C     95.17000000   104.97000000    46.51000000
   O     94.72000000   106.54000000    48.17000000
   H     92.15000000   107.18000000    48.03000000
   H     92.45000000   104.69000000    46.60000000
   H     93.91000000   106.70000000    46.38000000
   H     95.35000000   107.10000000    47.71000000
   H     94.73000000   104.17000000    45.91000000
   H     95.83000000   105.58000000    45.89000000
   H     95.87000000   104.56000000    47.23000000
   N     92.84000000   104.58000000    49.91000000
   C     93.48000000   103.82000000    50.96000000
   C     92.63000000   102.63000000    51.40000000
   O     91.42000000   102.76000000    51.26000000
   C     93.78000000   104.64000000    52.21000000
   C     94.73000000   105.82000000    52.12000000
   C     96.04000000   105.41000000    51.45000000
   C     97.06000000   106.53000000    51.26000000
   N     98.37000000   105.92000000    50.96000000
   H     92.69000000   105.54000000    50.20000000
   H     94.40000000   103.34000000    50.63000000
   H     94.24000000   103.97000000    52.94000000
   H     92.89000000   104.96000000    52.76000000
   H     94.96000000   106.22000000    53.11000000
   H     94.25000000   106.52000000    51.43000000
   H     95.84000000   104.94000000    50.49000000
   H     96.58000000   104.75000000    52.13000000
   H     97.14000000   107.22000000    52.10000000
   H     96.69000000   107.15000000    50.44000000
   H     98.69000000   105.37000000    51.74000000
   H     98.36000000   105.24000000    50.22000000
   H     99.04000000   106.66000000    50.80000000
   N     93.18000000   101.64000000    52.11000000
   C     92.45000000   100.54000000    52.69000000
   C     93.23000000    99.24000000    52.52000000
   O     94.46000000    99.25000000    52.56000000
   C     92.27000000   100.69000000    54.20000000
   C     91.25000000   101.77000000    54.53000000
   C     91.20000000   101.93000000    56.04000000
   O     91.90000000   102.79000000    56.63000000
   O     90.31000000   101.31000000    56.66000000
   H     94.19000000   101.60000000    52.04000000
   H     91.49000000   100.42000000    52.17000000
   H     93.22000000   100.80000000    54.72000000
   H     91.89000000    99.79000000    54.69000000
   H     90.26000000   101.49000000    54.18000000
   H     91.45000000   102.74000000    54.07000000
   N     92.65000000    98.05000000    52.40000000
   C     91.32000000    97.75000000    51.90000000
   H     90.65500000    98.58700000    52.11400000
   H     91.36400000    97.58800000    50.82300000
   H     90.94200000    96.85200000    52.38800000
   H     93.21000000    97.23000000    52.54000000
  Ca     80.07000000   102.09500000    38.35000000
   O     79.21000000   101.68500000    35.75000000
   H     78.77000000   100.92500000    35.37000000
   H     79.42000000   102.23500000    34.99000000
   O     81.02000000   104.58500000    37.49000000
   H     81.62000000   105.20500000    37.90000000
   H     81.33000000   104.51500000    36.58000000
   O     82.70000000   102.10500000    38.17000000
   H     83.35000000   101.72500000    37.58000000
   H     83.17000000   102.25500000    38.99000000
   O     78.08000000   103.70500000    37.66000000
   H     77.15000000   103.50500000    37.57000000
   H     78.28000000   104.25500000    36.91000000
   O     80.81000000    99.66000000    37.12000000
   H     80.79000000    99.01000000    37.83000000
   H     80.93000000    99.14000000    36.32000000

Ca 1.00



