%chk=loop3.holoCaM.run80.water1.chk
%nprocshared=20
%mem=10GB
%nosave
#b3lyp/svp scf=(tight,noincore,xqc) Test 
#IOP(5/87=12) Density=Current Pop=(MK,readradii) iop(6/33=2) iop(6/42=6)

loop3.holoCaM.run80.water1 

   0  1 
   C     63.81000000    63.56000000    40.97000000
   C     64.42000000    64.07000000    42.27000000
   O     65.64000000    63.93000000    42.36000000
   H     62.91300000    64.13500000    40.74000000
   H     64.53100000    63.67300000    40.16100000
   H     63.54800000    62.50800000    41.07900000
   N     63.72000000    64.69000000    43.21000000
   C     64.27000000    65.07000000    44.50000000
   C     64.27000000    63.88000000    45.46000000
   O     63.53000000    62.92000000    45.33000000
   C     63.46000000    66.23000000    45.07000000
   C     64.12000000    66.97000000    46.22000000
   O     64.21000000    66.51000000    47.37000000
   O     64.54000000    68.15000000    46.11000000
   H     62.73000000    64.76000000    43.03000000
   H     65.31000000    65.39000000    44.45000000
   H     62.47000000    65.90000000    45.37000000
   H     63.31000000    67.00000000    44.31000000
   N     65.13000000    63.93000000    46.49000000
   C     65.27000000    62.91000000    47.51000000
   C     64.43000000    63.21000000    48.75000000
   O     64.13000000    62.29000000    49.51000000
   C     66.77000000    62.81000000    47.73000000
   C     67.05000000    61.43000000    48.31000000
   C     68.57000000    61.30000000    48.41000000
   C     69.09000000    59.91000000    48.80000000
   N     68.78000000    59.63000000    50.21000000
   H     65.63000000    64.80000000    46.57000000
   H     64.92000000    61.96000000    47.10000000
   H     67.06000000    63.63000000    48.38000000
   H     67.32000000    62.81000000    46.79000000
   H     66.74000000    60.60000000    47.68000000
   H     66.68000000    61.28000000    49.33000000
   H     69.03000000    62.08000000    49.02000000
   H     68.96000000    61.49000000    47.41000000
   H     70.15000000    59.93000000    48.56000000
   H     68.58000000    59.18000000    48.17000000
   H     67.80000000    59.40000000    50.26000000
   H     69.40000000    58.90000000    50.54000000
   H     68.89000000    60.45000000    50.79000000
   N     64.10000000    64.45000000    49.10000000
   C     63.71000000    64.85000000    50.44000000
   C     62.54000000    65.82000000    50.51000000
   O     61.88000000    65.89000000    51.55000000
   C     64.89000000    65.46000000    51.17000000
   C     65.52000000    66.50000000    50.25000000
   O     66.63000000    66.34000000    49.70000000
   O     64.93000000    67.60000000    50.12000000
   H     64.20000000    65.16000000    48.38000000
   H     63.33000000    64.00000000    51.01000000
   H     65.53000000    64.59000000    51.30000000
   H     64.63000000    65.91000000    52.13000000
   N     62.25000000    66.56000000    49.44000000
   C     61.12000000    67.47000000    49.38000000
   C     61.33000000    68.98000000    49.29000000
   O     60.42000000    69.74000000    48.97000000
   H     62.82000000    66.52000000    48.61000000
   H     60.37000000    67.33000000    50.16000000
   H     60.52000000    67.19000000    48.51000000
   N     62.54000000    69.42000000    49.62000000
   C     62.81000000    70.85000000    49.56000000
   C     62.75000000    71.53000000    48.21000000
   O     62.77000000    72.76000000    48.16000000
   C     64.13000000    71.08000000    50.29000000
   C     65.41000000    70.98000000    49.48000000
   N     66.47000000    71.65000000    49.94000000
   O     65.45000000    70.33000000    48.43000000
   H     63.28000000    68.82000000    49.95000000
   H     62.00000000    71.26000000    50.16000000
   H     64.22000000    70.43000000    51.17000000
   H     64.10000000    72.13000000    50.59000000
   H     66.49000000    72.29000000    50.72000000
   H     67.27000000    71.67000000    49.33000000
   N     62.71000000    70.73000000    47.14000000
   C     62.68000000    71.21000000    45.78000000
   C     63.99000000    71.78000000    45.25000000
   O     64.05000000    72.49000000    44.24000000
   H     62.96000000    69.76000000    47.28000000
   H     61.88000000    71.94000000    45.67000000
   H     62.36000000    70.36000000    45.17000000
   N     65.14000000    71.46000000    45.85000000
   C     66.45000000    71.95000000    45.48000000
   C     67.30000000    70.70000000    45.24000000
   O     67.19000000    69.78000000    46.05000000
   C     66.95000000    72.89000000    46.57000000
   C     66.24000000    74.22000000    46.70000000
   C     65.80000000    74.88000000    45.56000000
   C     66.05000000    74.70000000    48.00000000
   C     65.02000000    76.03000000    45.75000000
   C     65.37000000    75.92000000    48.15000000
   C     64.83000000    76.59000000    47.03000000
   O     64.22000000    77.81000000    47.11000000
   H     65.00000000    70.73000000    46.54000000
   H     66.42000000    72.47000000    44.52000000
   H     67.99000000    73.14000000    46.39000000
   H     66.87000000    72.38000000    47.53000000
   H     66.02000000    74.52000000    44.56000000
   H     66.34000000    74.20000000    48.91000000
   H     64.66000000    76.65000000    44.94000000
   H     65.12000000    76.27000000    49.13000000
   H     64.15000000    78.18000000    47.99000000
   N     67.94000000    70.55000000    44.08000000
   C     68.70000000    69.36000000    43.75000000
   C     70.10000000    69.82000000    43.37000000
   O     70.33000000    70.67000000    42.52000000
   C     67.91000000    68.65000000    42.64000000
   C     66.58000000    68.08000000    43.09000000
   C     68.69000000    67.50000000    42.01000000
   C     65.46000000    69.12000000    43.10000000
   H     67.93000000    71.36000000    43.47000000
   H     68.74000000    68.75000000    44.65000000
   H     67.66000000    69.43000000    41.92000000
   H     66.71000000    67.65000000    44.09000000
   H     66.20000000    67.35000000    42.38000000
   H     69.62000000    67.93000000    41.65000000
   H     68.86000000    66.67000000    42.69000000
   H     68.07000000    67.02000000    41.25000000
   H     64.49000000    68.62000000    43.01000000
   H     65.37000000    69.76000000    43.97000000
   H     65.59000000    69.72000000    42.20000000
   N     71.07000000    69.05000000    43.87000000
   C     72.48000000    69.12000000    43.55000000
   C     72.86000000    67.95000000    42.65000000
   O     72.22000000    66.91000000    42.62000000
   C     73.34000000    68.92000000    44.80000000
   O     73.21000000    67.69000000    45.48000000
   H     70.77000000    68.33000000    44.51000000
   H     72.79000000    70.09000000    43.16000000
   H     72.97000000    69.75000000    45.40000000
   H     74.41000000    69.03000000    44.64000000
   H     72.54000000    67.85000000    46.15000000
   N     74.03000000    68.00000000    42.00000000
   C     74.51000000    66.85000000    41.26000000
   C     74.57000000    65.53000000    42.01000000
   O     74.18000000    64.47000000    41.52000000
   C     75.86000000    67.24000000    40.66000000
   H     74.57000000    68.85000000    41.91000000
   H     73.81000000    66.69000000    40.44000000
   H     76.02000000    68.31000000    40.53000000
   H     76.69000000    66.84000000    41.24000000
   H     75.90000000    66.74000000    39.70000000
   N     74.94000000    65.56000000    43.29000000
   C     74.86000000    64.51000000    44.29000000
   C     73.47000000    63.90000000    44.40000000
   O     73.37000000    62.71000000    44.65000000
   C     75.38000000    65.03000000    45.63000000
   H     75.44000000    66.38000000    43.60000000
   H     75.49000000    63.72000000    43.90000000
   H     76.38000000    65.45000000    45.47000000
   H     74.82000000    65.88000000    46.01000000
   H     75.36000000    64.16000000    46.29000000
   N     72.45000000    64.76000000    44.38000000
   C     71.08000000    64.30000000    44.49000000
   C     70.44000000    63.82000000    43.19000000
   O     69.63000000    62.91000000    43.08000000
   C     70.30000000    65.49000000    45.05000000
   C     68.94000000    65.01000000    45.57000000
   C     68.11000000    66.16000000    46.12000000
   O     66.86000000    66.12000000    46.05000000
   O     68.63000000    67.11000000    46.73000000
   H     72.57000000    65.71000000    44.07000000
   H     70.94000000    63.43000000    45.13000000
   H     70.22000000    66.24000000    44.26000000
   H     70.78000000    66.08000000    45.83000000
   H     69.18000000    64.23000000    46.29000000
   H     68.39000000    64.57000000    44.74000000
   N     70.97000000    64.40000000    42.11000000
   C     70.77000000    64.00000000    40.73000000
   H     70.05300000    64.67200000    40.25800000
   H     71.71900000    64.04800000    40.19600000
   H     70.38600000    62.98000000    40.69900000
   H     71.45000000    65.28000000    42.21000000
  Ca     66.47000000    67.98000000    47.78000000
   O     68.58000000    68.73000000    49.29000000
   H     69.46000000    68.91000000    48.97000000
   H     68.66000000    68.73000000    50.25000000

Ca 1.00



