%chk=loop2.holoCaM.run46.water1.chk
%nprocshared=20
%mem=10GB
%nosave
#b3lyp/svp scf=(tight,noincore,xqc) Test 
#IOP(5/87=12) Density=Current Pop=(MK,readradii) iop(6/33=2) iop(6/42=6)

loop2.holoCaM.run46.water1 

   -2  1 
   C     62.71000000    63.77000000    22.52000000
   C     62.24000000    64.92000000    23.40000000
   O     63.11000000    65.62000000    23.93000000
   H     63.71300000    63.46900000    22.82200000
   H     62.02900000    62.92600000    22.63000000
   H     62.72600000    64.09200000    21.47900000
   N     60.94000000    65.09000000    23.64000000
   C     60.36000000    66.11000000    24.48000000
   C     60.90000000    66.04000000    25.91000000
   O     60.70000000    65.06000000    26.62000000
   C     58.84000000    66.01000000    24.40000000
   C     58.07000000    66.79000000    25.45000000
   O     57.15000000    66.22000000    26.07000000
   O     58.37000000    68.00000000    25.54000000
   H     60.31000000    64.57000000    23.05000000
   H     60.64000000    67.08000000    24.07000000
   H     58.40000000    65.02000000    24.49000000
   H     58.48000000    66.32000000    23.42000000
   N     61.54000000    67.14000000    26.32000000
   C     62.16000000    67.15000000    27.62000000
   C     61.36000000    68.00000000    28.59000000
   O     61.69000000    68.10000000    29.77000000
   C     63.62000000    67.55000000    27.42000000
   H     61.60000000    67.93000000    25.69000000
   H     62.26000000    66.14000000    28.02000000
   H     63.98000000    67.17000000    26.47000000
   H     63.67000000    68.64000000    27.39000000
   H     64.33000000    67.08000000    28.11000000
   N     60.25000000    68.61000000    28.17000000
   C     59.38000000    69.44000000    28.98000000
   C     57.92000000    69.03000000    29.11000000
   O     57.14000000    69.75000000    29.74000000
   C     59.63000000    70.94000000    28.89000000
   C     59.54000000    71.71000000    27.58000000
   O     60.10000000    72.82000000    27.43000000
   O     58.78000000    71.21000000    26.72000000
   H     59.93000000    68.36000000    27.24000000
   H     59.69000000    69.11000000    29.97000000
   H     60.63000000    71.19000000    29.25000000
   H     58.90000000    71.38000000    29.57000000
   N     57.62000000    67.81000000    28.68000000
   C     56.46000000    67.10000000    29.20000000
   C     55.19000000    67.53000000    28.48000000
   O     54.12000000    66.99000000    28.73000000
   H     58.10000000    67.34000000    27.92000000
   H     56.31000000    67.32000000    30.25000000
   H     56.60000000    66.03000000    29.06000000
   N     55.25000000    68.58000000    27.66000000
   C     54.13000000    69.24000000    27.03000000
   C     53.64000000    68.59000000    25.74000000
   O     52.56000000    69.01000000    25.34000000
   C     54.50000000    70.72000000    26.93000000
   C     55.32000000    71.01000000    25.68000000
   N     55.53000000    72.29000000    25.35000000
   O     56.03000000    70.16000000    25.14000000
   H     56.20000000    68.90000000    27.53000000
   H     53.29000000    69.13000000    27.71000000
   H     55.04000000    71.01000000    27.83000000
   H     53.53000000    71.21000000    26.80000000
   H     55.26000000    73.06000000    25.95000000
   H     55.94000000    72.52000000    24.46000000
   N     54.29000000    67.60000000    25.14000000
   C     53.68000000    66.86000000    24.05000000
   C     53.89000000    67.47000000    22.68000000
   O     53.22000000    66.97000000    21.77000000
   H     55.14000000    67.24000000    25.55000000
   H     52.59000000    66.75000000    24.13000000
   H     54.18000000    65.89000000    24.13000000
   N     54.71000000    68.50000000    22.44000000
   C     55.10000000    69.00000000    21.14000000
   C     56.60000000    69.24000000    21.10000000
   O     57.31000000    69.36000000    22.10000000
   C     54.37000000    70.28000000    20.77000000
   C     52.86000000    70.10000000    20.63000000
   O     54.57000000    71.40000000    21.60000000
   H     55.22000000    68.81000000    23.26000000
   H     54.92000000    68.29000000    20.33000000
   H     54.60000000    70.59000000    19.75000000
   H     53.96000000    72.05000000    21.26000000
   H     52.34000000    71.00000000    20.32000000
   H     52.62000000    69.31000000    19.92000000
   H     52.39000000    69.83000000    21.58000000
   N     57.15000000    69.33000000    19.89000000
   C     58.58000000    69.35000000    19.68000000
   C     59.05000000    70.79000000    19.54000000
   O     58.47000000    71.55000000    18.77000000
   C     59.09000000    68.52000000    18.50000000
   C     58.86000000    67.01000000    18.63000000
   C     60.60000000    68.71000000    18.40000000
   C     59.39000000    66.12000000    17.51000000
   H     56.59000000    69.21000000    19.06000000
   H     59.03000000    68.95000000    20.59000000
   H     58.61000000    68.85000000    17.58000000
   H     57.78000000    66.98000000    18.74000000
   H     59.34000000    66.63000000    19.53000000
   H     60.96000000    68.22000000    17.50000000
   H     60.80000000    69.78000000    18.31000000
   H     61.10000000    68.27000000    19.27000000
   H     60.48000000    66.08000000    17.53000000
   H     59.12000000    65.09000000    17.75000000
   H     59.08000000    66.51000000    16.54000000
   N     60.00000000    71.26000000    20.34000000
   C     60.73000000    72.50000000    20.19000000
   C     61.99000000    72.29000000    19.37000000
   O     62.52000000    71.18000000    19.32000000
   C     61.04000000    73.13000000    21.55000000
   C     59.84000000    73.30000000    22.47000000
   O     59.67000000    72.38000000    23.29000000
   O     58.96000000    74.18000000    22.35000000
   H     60.39000000    70.56000000    20.96000000
   H     60.18000000    73.25000000    19.61000000
   H     61.49000000    74.11000000    21.36000000
   H     61.88000000    72.61000000    22.00000000
   N     62.63000000    73.34000000    18.85000000
   C     63.87000000    73.29000000    18.10000000
   C     64.99000000    72.54000000    18.80000000
   O     65.58000000    71.65000000    18.19000000
   C     64.23000000    74.63000000    17.47000000
   C     65.38000000    74.44000000    16.52000000
   C     65.29000000    73.75000000    15.31000000
   C     66.64000000    74.89000000    16.94000000
   C     66.42000000    73.38000000    14.57000000
   C     67.77000000    74.60000000    16.16000000
   C     67.67000000    73.86000000    14.98000000
   H     62.27000000    74.28000000    18.84000000
   H     63.55000000    72.65000000    17.27000000
   H     64.38000000    75.41000000    18.21000000
   H     63.36000000    74.99000000    16.92000000
   H     64.28000000    73.43000000    15.05000000
   H     66.81000000    75.50000000    17.82000000
   H     66.35000000    72.82000000    13.65000000
   H     68.72000000    74.95000000    16.54000000
   H     68.54000000    73.62000000    14.38000000
   N     65.27000000    72.77000000    20.09000000
   C     66.34000000    72.04000000    20.74000000
   C     66.01000000    70.57000000    20.95000000
   O     66.96000000    69.80000000    21.04000000
   C     66.56000000    72.69000000    22.10000000
   C     65.80000000    74.01000000    22.04000000
   C     64.91000000    73.98000000    20.80000000
   H     67.25000000    71.97000000    20.15000000
   H     66.15000000    72.06000000    22.89000000
   H     67.62000000    72.88000000    22.30000000
   H     65.24000000    74.26000000    22.95000000
   H     66.49000000    74.84000000    21.92000000
   H     63.85000000    74.07000000    21.05000000
   H     65.18000000    74.85000000    20.20000000
   N     64.72000000    70.23000000    20.91000000
   C     64.27000000    68.85000000    20.95000000
   C     64.24000000    68.17000000    19.58000000
   O     64.59000000    67.00000000    19.43000000
   C     62.91000000    68.70000000    21.63000000
   C     62.82000000    69.32000000    23.02000000
   C     61.38000000    69.37000000    23.51000000
   O     60.35000000    69.55000000    22.82000000
   O     61.21000000    69.41000000    24.74000000
   H     64.03000000    70.97000000    20.87000000
   H     64.99000000    68.26000000    21.51000000
   H     62.57000000    67.66000000    21.69000000
   H     62.16000000    69.19000000    21.02000000
   H     63.10000000    70.38000000    22.95000000
   H     63.54000000    68.85000000    23.68000000
   N     63.99000000    68.92000000    18.50000000
   C     64.11000000    68.49000000    17.12000000
   H     65.16400000    68.40300000    16.85700000
   H     63.62500000    67.52200000    16.99700000
   H     63.63300000    69.22200000    16.46800000
   H     63.88000000    69.91000000    18.63000000
  Ca     58.60000000    70.30000000    24.41000000
   O     57.02000000    72.16000000    22.91000000
   H     57.65000000    72.80000000    22.56000000
   H     56.38000000    72.04000000    22.22000000

Ca 1.00



