%chk=loop2.apoCaM-CA-Ng.Init295.run99.water4.chk
%nprocshared=20
%mem=10GB
%nosave
#b3lyp/svp scf=(tight,noincore,xqc) Test 
#IOP(5/87=12) Density=Current Pop=(MK,readradii) iop(6/33=2) iop(6/42=6)

loop2.apoCaM-CA-Ng.Init295.run99.water4 

   -2  1 
   C     21.74000000    94.03000000    49.81000000
   C     22.51000000    94.88000000    48.81000000
   O     22.56000000    94.50000000    47.64000000
   H     20.75400000    93.79900000    49.40700000
   H     22.28300000    93.10300000    49.99400000
   H     21.63000000    94.57900000    50.74500000
   N     23.19000000    95.95000000    49.20000000
   C     24.06000000    96.70000000    48.31000000
   C     23.41000000    97.62000000    47.29000000
   O     24.16000000    98.02000000    46.40000000
   C     24.96000000    97.57000000    49.19000000
   C     26.05000000    96.88000000    49.99000000
   O     26.86000000    97.55000000    50.66000000
   O     26.18000000    95.64000000    49.87000000
   H     23.09000000    96.19000000    50.18000000
   H     24.64000000    96.05000000    47.66000000
   H     24.34000000    98.19000000    49.84000000
   H     25.43000000    98.27000000    48.50000000
   N     22.19000000    98.12000000    47.50000000
   C     21.36000000    98.81000000    46.54000000
   C     20.08000000    99.28000000    47.23000000
   O     19.67000000    98.62000000    48.18000000
   C     20.92000000    97.84000000    45.44000000
   H     21.67000000    97.78000000    48.30000000
   H     21.94000000    99.65000000    46.15000000
   H     21.87000000    97.51000000    45.04000000
   H     20.28000000    97.00000000    45.73000000
   H     20.37000000    98.42000000    44.70000000
   N     19.34000000   100.29000000    46.77000000
   C     19.54000000   101.09000000    45.58000000
   C     19.76000000   102.57000000    45.84000000
   O     19.88000000   103.36000000    44.90000000
   C     18.49000000   100.71000000    44.54000000
   C     18.73000000   101.21000000    43.12000000
   O     19.76000000   100.79000000    42.55000000
   O     18.02000000   102.03000000    42.49000000
   H     18.70000000   100.54000000    47.52000000
   H     20.47000000   100.74000000    45.14000000
   H     17.51000000   100.97000000    44.94000000
   H     18.54000000    99.63000000    44.50000000
   N     19.79000000   102.95000000    47.12000000
   C     19.97000000   104.33000000    47.52000000
   C     21.36000000   104.93000000    47.44000000
   O     22.34000000   104.32000000    47.03000000
   H     19.80000000   102.23000000    47.83000000
   H     19.63000000   104.52000000    48.54000000
   H     19.38000000   104.93000000    46.82000000
   N     21.56000000   106.20000000    47.81000000
   C     20.46000000   107.12000000    48.06000000
   C     19.72000000   106.99000000    49.38000000
   O     20.38000000   106.82000000    50.40000000
   C     20.97000000   108.54000000    47.81000000
   C     19.82000000   109.52000000    47.94000000
   N     19.86000000   110.53000000    48.81000000
   O     18.85000000   109.40000000    47.20000000
   H     22.48000000   106.58000000    47.65000000
   H     19.65000000   107.04000000    47.34000000
   H     21.44000000   108.59000000    46.82000000
   H     21.70000000   108.80000000    48.57000000
   H     20.69000000   110.59000000    49.38000000
   H     19.19000000   111.29000000    48.83000000
   N     18.39000000   107.12000000    49.35000000
   C     17.50000000   107.03000000    50.49000000
   C     16.10000000   106.47000000    50.26000000
   O     15.29000000   106.46000000    51.19000000
   H     18.02000000   107.10000000    48.41000000
   H     17.34000000   108.02000000    50.93000000
   H     17.82000000   106.27000000    51.20000000
   N     15.85000000   106.01000000    49.04000000
   C     14.62000000   105.37000000    48.60000000
   C     14.84000000   104.12000000    47.76000000
   O     15.91000000   103.88000000    47.21000000
   C     13.66000000   106.36000000    47.97000000
   C     13.23000000   107.49000000    48.90000000
   O     14.17000000   107.02000000    46.83000000
   H     16.59000000   106.25000000    48.38000000
   H     14.16000000   105.11000000    49.56000000
   H     12.72000000   105.90000000    47.64000000
   H     13.81000000   106.66000000    46.02000000
   H     12.44000000   108.08000000    48.43000000
   H     12.82000000   106.96000000    49.76000000
   H     14.02000000   108.12000000    49.31000000
   N     13.88000000   103.19000000    47.72000000
   C     13.84000000   102.05000000    46.82000000
   C     12.49000000   101.98000000    46.11000000
   O     11.55000000   102.61000000    46.59000000
   C     14.21000000   100.71000000    47.45000000
   C     15.73000000   100.56000000    47.57000000
   C     13.52000000   100.71000000    48.81000000
   C     16.14000000    99.27000000    48.28000000
   H     13.03000000   103.40000000    48.22000000
   H     14.53000000   102.17000000    45.99000000
   H     13.74000000    99.82000000    47.03000000
   H     15.97000000   101.41000000    48.21000000
   H     16.20000000   100.65000000    46.59000000
   H     13.49000000    99.73000000    49.28000000
   H     14.14000000   101.28000000    49.49000000
   H     12.48000000   101.05000000    48.81000000
   H     15.85000000    99.28000000    49.33000000
   H     15.83000000    98.38000000    47.74000000
   H     17.21000000    99.08000000    48.14000000
   N     12.38000000   101.31000000    44.97000000
   C     11.19000000   101.28000000    44.14000000
   C     10.97000000    99.94000000    43.45000000
   O     11.91000000    99.34000000    42.94000000
   C     11.24000000   102.47000000    43.18000000
   C     12.54000000   102.76000000    42.43000000
   O     13.40000000   103.54000000    42.88000000
   O     12.73000000   102.08000000    41.40000000
   H     13.20000000   100.94000000    44.52000000
   H     10.37000000   101.45000000    44.84000000
   H     10.97000000   103.35000000    43.76000000
   H     10.47000000   102.28000000    42.44000000
   N      9.71000000    99.53000000    43.58000000
   C      9.15000000    98.39000000    42.87000000
   C      9.87000000    97.09000000    43.19000000
   O     10.08000000    96.80000000    44.37000000
   C      7.65000000    98.26000000    43.08000000
   C      7.06000000    97.15000000    42.23000000
   C      6.94000000    95.83000000    42.68000000
   C      6.66000000    97.46000000    40.93000000
   C      6.27000000    94.89000000    41.89000000
   C      6.09000000    96.47000000    40.12000000
   C      5.96000000    95.15000000    40.55000000
   H      8.98000000   100.20000000    43.79000000
   H      9.25000000    98.55000000    41.80000000
   H      7.12000000    99.16000000    42.76000000
   H      7.46000000    98.09000000    44.14000000
   H      7.38000000    95.53000000    43.62000000
   H      6.72000000    98.49000000    40.61000000
   H      6.06000000    93.90000000    42.25000000
   H      5.82000000    96.73000000    39.10000000
   H      5.47000000    94.44000000    39.90000000
   N     10.45000000    96.33000000    42.27000000
   C     11.17000000    95.11000000    42.57000000
   C     12.49000000    95.34000000    43.29000000
   O     13.23000000    94.40000000    43.60000000
   C     11.52000000    94.45000000    41.24000000
   C     10.39000000    94.96000000    40.35000000
   C     10.28000000    96.40000000    40.83000000
   H     10.57000000    94.50000000    43.25000000
   H     12.45000000    94.86000000    40.84000000
   H     11.61000000    93.38000000    41.45000000
   H     10.62000000    94.93000000    39.29000000
   H      9.45000000    94.43000000    40.53000000
   H     11.00000000    97.04000000    40.31000000
   H      9.30000000    96.69000000    40.46000000
   N     12.85000000    96.59000000    43.61000000
   C     13.97000000    96.95000000    44.46000000
   C     13.78000000    96.73000000    45.95000000
   O     14.76000000    96.38000000    46.61000000
   C     14.44000000    98.39000000    44.29000000
   C     14.97000000    98.76000000    42.91000000
   C     15.19000000   100.25000000    42.68000000
   O     15.23000000   100.66000000    41.50000000
   O     15.20000000   101.08000000    43.61000000
   H     12.09000000    97.25000000    43.56000000
   H     14.83000000    96.32000000    44.23000000
   H     15.28000000    98.64000000    44.94000000
   H     13.62000000    99.07000000    44.52000000
   H     14.22000000    98.45000000    42.18000000
   H     15.89000000    98.21000000    42.71000000
   N     12.55000000    96.94000000    46.42000000
   C     12.14000000    96.44000000    47.72000000
   H     11.11300000    96.07900000    47.66200000
   H     12.79600000    95.62200000    48.01900000
   H     12.20200000    97.24300000    48.45500000
   H     11.86000000    96.99000000    45.69000000
  Ca     15.75000000   103.11400000    41.87000000
   O     16.11000000   103.47400000    44.50000000
   H     16.39000000   103.63400000    45.40000000
   H     15.70000000   102.61400000    44.53000000
   O     15.05000000   102.54400000    39.16000000
   H     14.44000000   103.10400000    38.67000000
   H     15.70000000   102.28400000    38.51000000
   O     16.92000000   105.55400000    42.58000000
   H     17.68000000   105.73400000    43.14000000
   H     16.34000000   106.30400000    42.71000000
   O     17.53000000   103.89400000    40.04000000
   H     17.38000000   104.01400000    39.11000000
   H     18.48000000   103.86400000    40.14000000

Ca 1.00



