%chk=loop3.apoCaM-CA-Ng.Init31.run52.water6.chk
%nprocshared=20
%mem=10GB
%nosave
#b3lyp/svp scf=(tight,noincore,xqc) Test 
#IOP(5/87=12) Density=Current Pop=(MK,readradii) iop(6/33=2) iop(6/42=6)

loop3.apoCaM-CA-Ng.Init31.run52.water6 

   0  1 
   C    116.04000000    59.95000000    25.76000000
   C    116.72000000    61.31000000    25.69000000
   O    116.16000000    62.21000000    25.07000000
   H    115.07800000    59.99800000    25.24900000
   H    116.67000000    59.20300000    25.27700000
   H    115.88300000    59.67500000    26.80300000
   N    117.84000000    61.39000000    26.43000000
   C    118.75000000    62.50000000    26.56000000
   C    120.05000000    62.21000000    25.83000000
   O    120.33000000    61.05000000    25.53000000
   C    118.95000000    62.82000000    28.04000000
   C    119.20000000    61.57000000    28.87000000
   O    118.22000000    60.99000000    29.39000000
   O    120.36000000    61.14000000    29.04000000
   H    118.18000000    60.57000000    26.91000000
   H    118.27000000    63.34000000    26.05000000
   H    118.03000000    63.32000000    28.36000000
   H    119.81000000    63.49000000    28.07000000
   N    120.85000000    63.23000000    25.52000000
   C    122.12000000    63.10000000    24.83000000
   C    122.15000000    63.45000000    23.35000000
   O    123.20000000    63.69000000    22.76000000
   C    123.09000000    64.00000000    25.60000000
   C    123.38000000    63.60000000    27.04000000
   C    123.65000000    62.11000000    27.24000000
   C    124.99000000    61.80000000    26.58000000
   N    125.19000000    60.35000000    26.42000000
   H    120.64000000    64.13000000    25.94000000
   H    122.43000000    62.06000000    24.84000000
   H    122.81000000    65.05000000    25.58000000
   H    124.06000000    64.10000000    25.12000000
   H    122.49000000    63.80000000    27.64000000
   H    124.10000000    64.31000000    27.47000000
   H    122.87000000    61.43000000    26.90000000
   H    123.82000000    61.88000000    28.29000000
   H    125.74000000    62.15000000    27.29000000
   H    125.12000000    62.33000000    25.63000000
   H    125.40000000    59.93000000    27.31000000
   H    124.49000000    59.79000000    25.94000000
   H    125.96000000    60.12000000    25.80000000
   N    120.94000000    63.32000000    22.78000000
   C    120.48000000    63.23000000    21.41000000
   C    119.90000000    64.53000000    20.89000000
   O    119.29000000    64.56000000    19.82000000
   C    119.55000000    62.03000000    21.27000000
   C    118.30000000    62.07000000    22.15000000
   O    117.68000000    61.00000000    22.35000000
   O    117.94000000    63.16000000    22.65000000
   H    120.20000000    63.06000000    23.41000000
   H    121.35000000    63.06000000    20.77000000
   H    120.23000000    61.23000000    21.57000000
   H    119.22000000    61.83000000    20.25000000
   N    119.93000000    65.57000000    21.73000000
   C    119.38000000    66.88000000    21.43000000
   C    118.52000000    67.34000000    22.59000000
   O    118.76000000    66.92000000    23.72000000
   H    120.55000000    65.49000000    22.52000000
   H    118.73000000    66.82000000    20.55000000
   H    120.17000000    67.61000000    21.24000000
   N    117.57000000    68.28000000    22.53000000
   C    117.01000000    68.78000000    21.29000000
   C    115.51000000    68.98000000    21.35000000
   O    114.99000000    69.12000000    22.46000000
   C    117.77000000    70.08000000    21.04000000
   C    117.68000000    71.05000000    22.21000000
   N    118.68000000    71.11000000    23.09000000
   O    116.78000000    71.86000000    22.43000000
   H    117.12000000    68.59000000    23.38000000
   H    117.19000000    68.07000000    20.48000000
   H    117.30000000    70.63000000    20.21000000
   H    118.81000000    69.82000000    20.84000000
   H    119.47000000    70.49000000    22.97000000
   H    118.77000000    71.80000000    23.82000000
   N    114.76000000    69.17000000    20.25000000
   C    115.10000000    69.11000000    18.85000000
   C    115.20000000    67.71000000    18.26000000
   O    115.39000000    66.68000000    18.92000000
   H    113.77000000    69.28000000    20.41000000
   H    116.09000000    69.54000000    18.68000000
   H    114.36000000    69.66000000    18.27000000
   N    115.14000000    67.61000000    16.93000000
   C    115.54000000    66.53000000    16.05000000
   C    115.88000000    67.06000000    14.66000000
   O    115.15000000    67.75000000    13.96000000
   C    114.43000000    65.49000000    15.93000000
   C    113.03000000    66.06000000    15.83000000
   C    112.31000000    66.12000000    17.03000000
   C    112.52000000    66.61000000    14.65000000
   C    111.05000000    66.72000000    17.01000000
   C    111.31000000    67.31000000    14.69000000
   C    110.56000000    67.40000000    15.88000000
   O    109.36000000    68.05000000    15.89000000
   H    114.70000000    68.38000000    16.45000000
   H    116.38000000    66.04000000    16.53000000
   H    114.51000000    64.78000000    16.75000000
   H    114.71000000    64.87000000    15.08000000
   H    112.78000000    65.82000000    17.96000000
   H    113.07000000    66.48000000    13.73000000
   H    110.43000000    66.70000000    17.89000000
   H    110.96000000    67.76000000    13.77000000
   H    109.19000000    68.44000000    15.03000000
   N    117.08000000    66.70000000    14.18000000
   C    117.73000000    67.00000000    12.92000000
   C    118.08000000    65.73000000    12.15000000
   O    118.86000000    65.81000000    11.20000000
   C    118.86000000    68.02000000    13.06000000
   C    118.24000000    69.41000000    13.12000000
   C    119.71000000    67.79000000    14.31000000
   C    119.18000000    70.61000000    13.22000000
   H    117.63000000    66.13000000    14.81000000
   H    116.96000000    67.42000000    12.28000000
   H    119.42000000    68.06000000    12.13000000
   H    117.40000000    69.54000000    13.81000000
   H    117.67000000    69.51000000    12.19000000
   H    119.96000000    66.74000000    14.48000000
   H    120.66000000    68.32000000    14.28000000
   H    119.18000000    68.17000000    15.18000000
   H    120.15000000    70.44000000    12.75000000
   H    118.66000000    71.52000000    12.89000000
   H    119.41000000    70.68000000    14.29000000
   N    117.52000000    64.56000000    12.48000000
   C    117.82000000    63.29000000    11.85000000
   C    119.00000000    62.54000000    12.44000000
   O    119.46000000    61.51000000    11.94000000
   C    116.58000000    62.43000000    11.63000000
   O    115.69000000    62.64000000    12.71000000
   H    116.96000000    64.49000000    13.31000000
   H    118.08000000    63.38000000    10.80000000
   H    116.87000000    61.38000000    11.69000000
   H    116.21000000    62.62000000    10.63000000
   H    116.06000000    62.54000000    13.59000000
   N    119.54000000    63.02000000    13.56000000
   C    120.65000000    62.34000000    14.19000000
   C    120.28000000    61.17000000    15.10000000
   O    120.75000000    61.09000000    16.23000000
   C    121.47000000    63.37000000    14.97000000
   H    119.12000000    63.73000000    14.14000000
   H    121.33000000    62.07000000    13.38000000
   H    121.55000000    64.24000000    14.32000000
   H    120.84000000    63.65000000    15.82000000
   H    122.40000000    62.89000000    15.27000000
   N    119.50000000    60.23000000    14.55000000
   C    119.08000000    58.97000000    15.12000000
   C    118.32000000    59.13000000    16.43000000
   O    118.37000000    58.21000000    17.25000000
   C    120.22000000    57.96000000    15.19000000
   H    119.37000000    60.38000000    13.56000000
   H    118.35000000    58.49000000    14.47000000
   H    119.86000000    57.02000000    15.61000000
   H    120.64000000    57.78000000    14.20000000
   H    120.99000000    58.27000000    15.90000000
   N    117.57000000    60.21000000    16.69000000
   C    117.00000000    60.59000000    17.96000000
   C    115.52000000    60.28000000    18.07000000
   O    114.96000000    60.47000000    19.15000000
   C    117.20000000    62.08000000    18.26000000
   C    116.48000000    63.05000000    17.32000000
   C    117.13000000    63.24000000    15.95000000
   O    116.81000000    62.39000000    15.10000000
   O    117.94000000    64.17000000    15.71000000
   H    117.54000000    60.94000000    15.99000000
   H    117.56000000    60.05000000    18.73000000
   H    118.23000000    62.40000000    18.13000000
   H    116.91000000    62.21000000    19.30000000
   H    116.56000000    64.04000000    17.75000000
   H    115.44000000    62.77000000    17.14000000
   N    114.90000000    59.64000000    17.07000000
   C    113.59000000    59.04000000    17.15000000
   H    112.88400000    59.63200000    16.56700000
   H    113.62900000    58.02600000    16.75200000
   H    113.26600000    59.01000000    18.19000000
   H    115.37000000    59.62000000    16.17000000
  Ca    115.64900000    64.05000000    23.26000000
   O    116.60900000    65.68000000    25.15000000
   H    117.39900000    66.14000000    24.87000000
   H    116.20900000    66.25000000    25.81000000
   O    114.46900000    66.49000000    23.38000000
   H    114.59900000    67.25000000    23.95000000
   H    113.88900000    66.81000000    22.69000000
   O    116.41900000    65.33000000    20.93000000
   H    116.03900000    65.71000000    20.14000000
   H    117.27900000    65.01000000    20.65000000
   O    115.40900000    61.99000000    21.61000000
   H    116.22900000    61.60000000    21.94000000
   H    114.96900000    61.27000000    21.17000000
   O    113.34900000    63.15000000    24.38000000
   H    112.71900000    63.87000000    24.34000000
   H    112.82900000    62.39000000    24.64000000
   O    113.62900000    64.47000000    21.44000000
   H    113.13900000    65.23000000    21.13000000
   H    113.41900000    63.78000000    20.80000000

Ca 1.00



