%chk=loop1.apoCaM-CA-Ng.Init31.run88.water3.chk
%nprocshared=20
%mem=10GB
%nosave
#b3lyp/svp scf=(tight,noincore,xqc) Test 
#IOP(5/87=12) Density=Current Pop=(MK,readradii) iop(6/33=2) iop(6/42=6)

loop1.apoCaM-CA-Ng.Init31.run88.water3 

   0  1 
   C     56.94000000    42.87000000    27.64000000
   C     56.52000000    42.51000000    26.22000000
   O     55.36000000    42.30000000    25.89000000
   H     57.79200000    43.54900000    27.60500000
   H     56.11000000    43.35500000    28.15300000
   H     57.22000000    41.96400000    28.17700000
   N     57.52000000    42.67000000    25.34000000
   C     57.44000000    42.51000000    23.90000000
   C     57.16000000    41.09000000    23.44000000
   O     57.44000000    40.14000000    24.17000000
   C     58.82000000    42.89000000    23.38000000
   C     58.73000000    43.22000000    21.89000000
   O     57.64000000    43.52000000    21.36000000
   O     59.79000000    43.47000000    21.28000000
   H     58.44000000    42.91000000    25.68000000
   H     56.73000000    43.26000000    23.56000000
   H     59.51000000    42.08000000    23.62000000
   H     59.22000000    43.69000000    23.99000000
   N     56.66000000    40.89000000    22.21000000
   C     56.39000000    39.63000000    21.54000000
   C     57.41000000    38.51000000    21.69000000
   O     57.02000000    37.47000000    22.21000000
   C     56.08000000    39.92000000    20.07000000
   C     54.79000000    40.68000000    19.75000000
   C     54.73000000    40.87000000    18.24000000
   C     53.45000000    41.59000000    17.83000000
   N     53.37000000    43.00000000    18.23000000
   H     56.35000000    41.73000000    21.75000000
   H     55.44000000    39.26000000    21.92000000
   H     55.90000000    38.99000000    19.53000000
   H     56.92000000    40.45000000    19.63000000
   H     54.86000000    41.66000000    20.21000000
   H     53.95000000    40.03000000    20.00000000
   H     54.73000000    39.95000000    17.65000000
   H     55.60000000    41.42000000    17.87000000
   H     52.53000000    41.14000000    18.19000000
   H     53.50000000    41.54000000    16.74000000
   H     52.64000000    43.44000000    17.68000000
   H     52.89000000    43.17000000    19.10000000
   H     54.28000000    43.44000000    18.29000000
   N     58.69000000    38.62000000    21.33000000
   C     59.37000000    39.78000000    20.81000000
   C     60.74000000    39.87000000    21.46000000
   O     61.30000000    38.88000000    21.91000000
   C     59.43000000    39.42000000    19.32000000
   C     59.60000000    40.62000000    18.41000000
   O     60.34000000    40.58000000    17.40000000
   O     59.04000000    41.70000000    18.71000000
   H     59.28000000    37.83000000    21.55000000
   H     58.87000000    40.74000000    20.93000000
   H     58.48000000    39.00000000    18.99000000
   H     60.12000000    38.61000000    19.11000000
   N     61.38000000    41.03000000    21.24000000
   C     62.77000000    41.15000000    21.62000000
   C     63.22000000    42.58000000    21.88000000
   O     63.20000000    43.05000000    23.02000000
   H     60.86000000    41.77000000    20.79000000
   H     63.45000000    40.75000000    20.87000000
   H     62.98000000    40.46000000    22.44000000
   N     63.46000000    43.41000000    20.86000000
   C     63.87000000    44.79000000    20.99000000
   C     65.38000000    44.92000000    21.00000000
   O     66.12000000    43.99000000    20.68000000
   C     63.25000000    45.60000000    19.86000000
   C     61.82000000    45.29000000    19.44000000
   O     60.87000000    45.99000000    19.87000000
   O     61.56000000    44.34000000    18.66000000
   H     63.43000000    43.03000000    19.92000000
   H     63.50000000    45.13000000    21.96000000
   H     63.81000000    45.36000000    18.96000000
   H     63.28000000    46.68000000    20.02000000
   N     66.00000000    46.03000000    21.43000000
   C     65.40000000    47.28000000    21.85000000
   C     65.44000000    48.29000000    20.71000000
   O     64.71000000    49.28000000    20.73000000
   H     66.96000000    46.03000000    21.14000000
   H     65.98000000    47.69000000    22.67000000
   H     64.37000000    47.18000000    22.19000000
   N     66.19000000    48.04000000    19.63000000
   C     66.50000000    49.00000000    18.60000000
   C     67.06000000    50.33000000    19.07000000
   O     66.55000000    51.43000000    18.84000000
   C     65.32000000    49.11000000    17.64000000
   C     64.98000000    47.78000000    16.97000000
   O     65.64000000    49.84000000    16.48000000
   H     66.71000000    47.17000000    19.69000000
   H     67.30000000    48.55000000    18.01000000
   H     64.37000000    49.41000000    18.09000000
   H     65.30000000    50.74000000    16.55000000
   H     64.26000000    47.94000000    16.16000000
   H     65.91000000    47.27000000    16.72000000
   H     64.37000000    47.15000000    17.61000000
   N     68.09000000    50.20000000    19.91000000
   C     69.01000000    51.22000000    20.38000000
   C     69.73000000    51.98000000    19.27000000
   O     70.95000000    51.84000000    19.18000000
   C     68.32000000    52.08000000    21.44000000
   C     67.88000000    51.27000000    22.66000000
   C     69.36000000    53.13000000    21.80000000
   C     68.99000000    50.60000000    23.47000000
   H     68.34000000    49.27000000    20.22000000
   H     69.80000000    50.60000000    20.79000000
   H     67.52000000    52.58000000    20.89000000
   H     67.16000000    50.49000000    22.40000000
   H     67.49000000    51.98000000    23.38000000
   H     70.31000000    52.60000000    21.88000000
   H     69.41000000    53.91000000    21.03000000
   H     69.14000000    53.47000000    22.81000000
   H     69.62000000    51.34000000    23.96000000
   H     68.60000000    50.01000000    24.30000000
   H     69.65000000    49.96000000    22.88000000
   N     69.02000000    52.66000000    18.37000000
   C     69.49000000    53.29000000    17.15000000
   C     68.91000000    54.69000000    17.07000000
   O     67.91000000    55.07000000    17.69000000
   C     69.11000000    52.47000000    15.92000000
   C     67.61000000    52.56000000    15.62000000
   O     69.40000000    51.11000000    16.17000000
   H     68.03000000    52.65000000    18.53000000
   H     70.58000000    53.36000000    17.13000000
   H     69.62000000    52.82000000    15.03000000
   H     70.34000000    51.03000000    16.32000000
   H     67.08000000    52.16000000    16.49000000
   H     67.23000000    53.56000000    15.42000000
   H     67.42000000    51.98000000    14.72000000
   N     69.51000000    55.49000000    16.19000000
   C     68.94000000    56.76000000    15.78000000
   C     67.69000000    56.69000000    14.92000000
   O     67.58000000    55.74000000    14.14000000
   C     70.00000000    57.64000000    15.12000000
   C     71.18000000    57.99000000    16.02000000
   O     70.33000000    57.15000000    13.84000000
   H     70.42000000    55.20000000    15.88000000
   H     68.67000000    57.16000000    16.76000000
   H     69.56000000    58.58000000    14.80000000
   H     70.68000000    56.26000000    13.96000000
   H     71.62000000    57.07000000    16.43000000
   H     72.01000000    58.48000000    15.51000000
   H     70.82000000    58.57000000    16.86000000
   N     66.78000000    57.62000000    15.25000000
   C     65.46000000    57.73000000    14.67000000
   C     64.59000000    56.48000000    14.77000000
   O     64.12000000    55.91000000    13.79000000
   C     65.43000000    58.33000000    13.27000000
   C     66.21000000    59.63000000    13.09000000
   C     65.64000000    60.89000000    13.74000000
   C     66.64000000    62.01000000    13.48000000
   N     66.61000000    63.23000000    14.31000000
   H     67.06000000    58.31000000    15.93000000
   H     64.90000000    58.38000000    15.35000000
   H     64.37000000    58.45000000    13.01000000
   H     65.87000000    57.64000000    12.55000000
   H     66.29000000    59.71000000    12.01000000
   H     67.19000000    59.42000000    13.51000000
   H     65.56000000    60.67000000    14.80000000
   H     64.66000000    61.09000000    13.30000000
   H     66.61000000    62.38000000    12.45000000
   H     67.64000000    61.60000000    13.43000000
   H     67.14000000    63.96000000    13.85000000
   H     65.68000000    63.61000000    14.41000000
   H     66.95000000    63.13000000    15.25000000
   N     64.36000000    55.96000000    15.98000000
   C     63.64000000    54.74000000    16.28000000
   C     64.32000000    53.74000000    17.21000000
   O     64.39000000    52.56000000    16.88000000
   C     62.17000000    55.05000000    16.54000000
   C     61.34000000    55.31000000    15.28000000
   C     59.86000000    55.35000000    15.62000000
   O     59.07000000    54.46000000    15.22000000
   O     59.43000000    56.27000000    16.34000000
   H     64.77000000    56.56000000    16.69000000
   H     63.54000000    54.25000000    15.31000000
   H     61.96000000    55.86000000    17.24000000
   H     61.68000000    54.17000000    16.95000000
   H     61.53000000    54.67000000    14.42000000
   H     61.69000000    56.27000000    14.91000000
   N     64.93000000    54.06000000    18.35000000
   C     64.86000000    55.22000000    19.22000000
   H     63.81700000    55.50300000    19.36400000
   H     65.30700000    54.97900000    20.18400000
   H     65.40100000    56.05000000    18.76500000
   H     65.47000000    53.27000000    18.67000000
  Ca     59.02000000    44.24000000    19.06000000
   O     56.83000000    44.43000000    17.38000000
   H     56.91000000    44.08000000    16.50000000
   H     56.05000000    44.98000000    17.36000000
   O     57.27000000    46.27000000    19.99000000
   H     57.29000000    47.22000000    20.14000000
   H     56.47000000    45.98000000    20.43000000
   O     59.27000000    46.14000000    17.15000000
   H     58.72000000    46.92000000    17.10000000
   H     60.09000000    46.39000000    16.73000000

Ca 1.00



