%chk=loop2.holoCaM.run40.water1.chk
%nprocshared=20
%mem=10GB
%nosave
#b3lyp/svp scf=(tight,noincore,xqc) Test 
#IOP(5/87=12) Density=Current Pop=(MK,readradii) iop(6/33=2) iop(6/42=6)

loop2.holoCaM.run40.water1 

   -2  1 
   C     72.42000000    78.03000000   116.31000000
   C     73.40000000    78.56000000   117.35000000
   O     74.59000000    78.58000000   117.08000000
   H     71.54200000    78.67500000   116.27700000
   H     72.89900000    78.01900000   115.33100000
   H     72.11700000    77.01800000   116.57800000
   N     73.00000000    78.95000000   118.57000000
   C     73.79000000    79.44000000   119.68000000
   C     75.04000000    78.60000000   119.92000000
   O     74.94000000    77.51000000   120.48000000
   C     72.94000000    79.55000000   120.94000000
   C     73.71000000    80.28000000   122.04000000
   O     74.57000000    81.10000000   121.66000000
   O     73.50000000    80.09000000   123.25000000
   H     72.02000000    78.93000000   118.81000000
   H     74.13000000    80.45000000   119.44000000
   H     72.60000000    78.57000000   121.27000000
   H     72.11000000    80.12000000   120.53000000
   N     76.18000000    79.09000000   119.44000000
   C     77.49000000    78.48000000   119.38000000
   C     78.22000000    78.53000000   120.71000000
   O     78.89000000    77.57000000   121.08000000
   C     78.25000000    79.08000000   118.19000000
   H     76.06000000    80.02000000   119.05000000
   H     77.38000000    77.43000000   119.09000000
   H     78.37000000    80.13000000   118.43000000
   H     79.23000000    78.63000000   118.03000000
   H     77.62000000    78.93000000   117.31000000
   N     78.07000000    79.60000000   121.49000000
   C     78.85000000    79.82000000   122.69000000
   C     78.02000000    79.56000000   123.93000000
   O     78.64000000    79.46000000   125.00000000
   C     79.52000000    81.19000000   122.73000000
   C     78.75000000    82.46000000   122.40000000
   O     77.52000000    82.31000000   122.23000000
   O     79.42000000    83.51000000   122.33000000
   H     77.44000000    80.35000000   121.22000000
   H     79.67000000    79.10000000   122.61000000
   H     80.33000000    81.08000000   122.00000000
   H     80.00000000    81.28000000   123.71000000
   N     76.70000000    79.42000000   123.84000000
   C     75.99000000    78.93000000   125.01000000
   C     75.49000000    80.05000000   125.91000000
   O     75.36000000    79.84000000   127.11000000
   H     76.20000000    79.30000000   122.97000000
   H     76.56000000    78.15000000   125.51000000
   H     75.07000000    78.41000000   124.75000000
   N     75.41000000    81.24000000   125.32000000
   C     75.09000000    82.45000000   126.03000000
   C     73.66000000    82.96000000   125.88000000
   O     73.32000000    84.00000000   126.46000000
   C     76.20000000    83.48000000   125.84000000
   C     76.26000000    83.98000000   124.41000000
   N     77.25000000    84.84000000   124.12000000
   O     75.35000000    83.72000000   123.62000000
   H     75.60000000    81.23000000   124.32000000
   H     75.14000000    82.24000000   127.10000000
   H     77.12000000    82.91000000   125.93000000
   H     76.26000000    84.35000000   126.49000000
   H     77.84000000    85.11000000   124.89000000
   H     77.28000000    85.21000000   123.19000000
   N     72.84000000    82.15000000   125.22000000
   C     71.40000000    82.35000000   125.23000000
   C     70.84000000    83.46000000   124.35000000
   O     69.70000000    83.90000000   124.37000000
   H     73.17000000    81.32000000   124.74000000
   H     71.22000000    82.73000000   126.24000000
   H     70.85000000    81.45000000   124.96000000
   N     71.75000000    84.02000000   123.55000000
   C     71.47000000    85.03000000   122.55000000
   C     72.10000000    84.77000000   121.20000000
   O     73.04000000    84.00000000   121.01000000
   C     71.83000000    86.45000000   122.95000000
   C     70.86000000    87.06000000   123.96000000
   O     73.18000000    86.47000000   123.36000000
   H     72.74000000    83.85000000   123.70000000
   H     70.42000000    84.92000000   122.27000000
   H     71.67000000    87.01000000   122.03000000
   H     73.19000000    86.46000000   124.32000000
   H     71.02000000    86.64000000   124.95000000
   H     71.05000000    88.12000000   124.16000000
   H     69.84000000    86.76000000   123.71000000
   N     71.48000000    85.30000000   120.14000000
   C     71.98000000    85.22000000   118.78000000
   C     73.00000000    86.31000000   118.52000000
   O     72.64000000    87.48000000   118.62000000
   C     70.88000000    85.13000000   117.72000000
   C     70.52000000    83.64000000   117.75000000
   C     71.28000000    85.54000000   116.31000000
   C     69.44000000    83.32000000   116.72000000
   H     70.68000000    85.90000000   120.23000000
   H     72.53000000    84.28000000   118.69000000
   H     69.99000000    85.64000000   118.08000000
   H     70.01000000    83.41000000   118.68000000
   H     71.29000000    82.92000000   117.49000000
   H     70.49000000    85.47000000   115.56000000
   H     71.62000000    86.57000000   116.30000000
   H     71.98000000    84.75000000   116.03000000
   H     69.02000000    82.38000000   117.08000000
   H     68.69000000    84.11000000   116.67000000
   H     69.88000000    83.12000000   115.74000000
   N     74.21000000    85.93000000   118.09000000
   C     75.16000000    86.73000000   117.35000000
   C     74.95000000    86.75000000   115.84000000
   O     74.38000000    85.86000000   115.21000000
   C     76.56000000    86.16000000   117.54000000
   C     76.96000000    85.87000000   118.98000000
   O     77.09000000    84.68000000   119.33000000
   O     77.10000000    86.84000000   119.76000000
   H     74.40000000    84.95000000   118.15000000
   H     75.28000000    87.70000000   117.84000000
   H     77.22000000    86.97000000   117.24000000
   H     76.77000000    85.30000000   116.91000000
   N     75.58000000    87.73000000   115.18000000
   C     75.70000000    87.78000000   113.74000000
   C     76.32000000    86.56000000   113.08000000
   O     75.77000000    86.14000000   112.06000000
   C     76.37000000    89.11000000   113.37000000
   C     76.58000000    89.21000000   111.88000000
   C     75.47000000    89.38000000   111.04000000
   C     77.87000000    89.09000000   111.36000000
   C     75.71000000    89.62000000   109.68000000
   C     78.06000000    89.20000000   109.97000000
   C     76.99000000    89.54000000   109.13000000
   H     75.91000000    88.51000000   115.72000000
   H     74.71000000    87.80000000   113.28000000
   H     77.34000000    89.13000000   113.87000000
   H     75.83000000    89.95000000   113.79000000
   H     74.43000000    89.39000000   111.35000000
   H     78.75000000    88.96000000   111.97000000
   H     74.79000000    89.78000000   109.13000000
   H     79.00000000    89.17000000   109.45000000
   H     77.09000000    89.64000000   108.07000000
   N     77.40000000    85.92000000   113.55000000
   C     77.77000000    84.61000000   113.07000000
   C     76.73000000    83.49000000   113.14000000
   O     76.77000000    82.60000000   112.30000000
   C     79.03000000    84.18000000   113.82000000
   C     79.24000000    85.29000000   114.84000000
   C     78.37000000    86.49000000   114.47000000
   H     78.06000000    84.72000000   112.02000000
   H     78.87000000    83.18000000   114.23000000
   H     79.90000000    84.09000000   113.18000000
   H     78.82000000    84.94000000   115.79000000
   H     80.30000000    85.55000000   114.87000000
   H     78.04000000    87.03000000   115.36000000
   H     79.04000000    87.14000000   113.92000000
   N     75.72000000    83.66000000   113.99000000
   C     74.68000000    82.68000000   114.27000000
   C     73.41000000    82.99000000   113.50000000
   O     72.81000000    82.06000000   112.96000000
   C     74.44000000    82.58000000   115.77000000
   C     75.76000000    82.44000000   116.53000000
   C     75.55000000    82.46000000   118.04000000
   O     74.68000000    83.22000000   118.51000000
   O     76.30000000    81.83000000   118.82000000
   H     75.58000000    84.54000000   114.46000000
   H     74.98000000    81.68000000   113.95000000
   H     73.84000000    81.69000000   115.97000000
   H     73.92000000    83.47000000   116.11000000
   H     76.42000000    83.27000000   116.31000000
   H     76.16000000    81.45000000   116.31000000
   N     73.03000000    84.25000000   113.28000000
   C     72.13000000    84.78000000   112.28000000
   H     71.24800000    85.19300000   112.76900000
   H     72.63400000    85.56500000   111.71600000
   H     71.82900000    83.98200000   111.60200000
   H     73.54000000    84.91000000   113.84000000
  Ca     75.62000000    83.26000000   120.99200000
   O     75.31000000    85.86000000   121.57200000
   H     75.52000000    86.52000000   120.91200000
   H     74.83000000    86.34000000   122.25200000

Ca 1.00



