%chk=loop4.apoCaM-CA-Ng.Init31.run48.water4.chk
%nprocshared=20
%mem=10GB
%nosave
#b3lyp/svp scf=(tight,noincore,xqc) Test 
#IOP(5/87=12) Density=Current Pop=(MK,readradii) iop(6/33=2) iop(6/42=6)

loop4.apoCaM-CA-Ng.Init31.run48.water4 

   -3  1 
   C    100.68000000    52.35000000     3.72000000
   C    102.11000000    52.00000000     4.11000000
   O    102.70000000    52.61000000     4.99000000
   H    100.05800000    52.38300000     4.61400000
   H    100.66400000    53.32400000     3.23100000
   H    100.29400000    51.59400000     3.03700000
   N    102.82000000    50.97000000     3.62000000
   C    102.32000000    49.77000000     2.98000000
   C    102.55000000    48.53000000     3.82000000
   O    101.87000000    47.51000000     3.71000000
   C    102.87000000    49.62000000     1.56000000
   C    102.98000000    50.82000000     0.63000000
   O    102.80000000    52.02000000     0.95000000
   O    103.26000000    50.59000000    -0.56000000
   H    103.79000000    51.05000000     3.86000000
   H    101.23000000    49.80000000     2.91000000
   H    102.28000000    48.87000000     1.03000000
   H    103.90000000    49.35000000     1.79000000
   N    103.44000000    48.55000000     4.82000000
   C    103.50000000    47.57000000     5.88000000
   C    104.33000000    46.34000000     5.55000000
   O    103.92000000    45.20000000     5.71000000
   C    104.13000000    48.28000000     7.08000000
   C    103.37000000    49.49000000     7.62000000
   C    104.48000000    47.34000000     8.23000000
   C    101.90000000    49.27000000     7.96000000
   H    104.16000000    49.26000000     4.76000000
   H    102.50000000    47.22000000     6.11000000
   H    105.10000000    48.63000000     6.73000000
   H    103.47000000    50.32000000     6.92000000
   H    103.91000000    49.81000000     8.51000000
   H    105.23000000    46.59000000     7.98000000
   H    104.75000000    47.84000000     9.17000000
   H    103.65000000    46.70000000     8.51000000
   H    101.86000000    48.36000000     8.55000000
   H    101.61000000    50.10000000     8.61000000
   H    101.40000000    49.33000000     7.00000000
   N    105.37000000    46.64000000     4.77000000
   C    106.09000000    45.57000000     4.11000000
   C    106.41000000    45.87000000     2.65000000
   O    106.78000000    44.96000000     1.91000000
   C    107.36000000    45.21000000     4.86000000
   C    108.01000000    43.97000000     4.27000000
   O    109.16000000    44.01000000     3.79000000
   O    107.48000000    42.85000000     4.48000000
   H    105.63000000    47.61000000     4.62000000
   H    105.47000000    44.68000000     4.05000000
   H    107.01000000    45.07000000     5.89000000
   H    108.07000000    46.04000000     4.86000000
   N    106.29000000    47.12000000     2.19000000
   C    106.70000000    47.66000000     0.91000000
   C    108.19000000    47.88000000     0.73000000
   O    108.91000000    47.75000000     1.72000000
   H    106.05000000    47.82000000     2.87000000
   H    106.25000000    48.64000000     0.75000000
   H    106.26000000    47.06000000     0.11000000
   N    108.52000000    48.37000000    -0.47000000
   C    109.80000000    48.96000000    -0.78000000
   C    110.10000000    48.79000000    -2.27000000
   O    109.16000000    48.61000000    -3.04000000
   C    109.59000000    50.45000000    -0.50000000
   C    108.46000000    51.15000000    -1.23000000
   O    107.33000000    51.11000000    -0.69000000
   O    108.75000000    51.67000000    -2.33000000
   H    107.73000000    48.42000000    -1.10000000
   H    110.57000000    48.50000000    -0.17000000
   H    110.57000000    50.92000000    -0.60000000
   H    109.34000000    50.46000000     0.56000000
   N    111.34000000    48.84000000    -2.74000000
   C    112.57000000    49.39000000    -2.21000000
   C    113.19000000    48.46000000    -1.17000000
   O    112.66000000    47.35000000    -1.08000000
   H    111.44000000    48.61000000    -3.72000000
   H    112.40000000    50.33000000    -1.68000000
   H    113.29000000    49.65000000    -2.99000000
   N    114.19000000    48.77000000    -0.35000000
   C    114.88000000    49.96000000     0.11000000
   C    113.99000000    50.90000000     0.91000000
   O    112.81000000    50.61000000     1.11000000
   C    115.66000000    50.66000000    -1.00000000
   C    116.82000000    49.78000000    -1.48000000
   C    117.60000000    50.42000000    -2.62000000
   N    118.35000000    51.49000000    -2.36000000
   O    117.51000000    50.10000000    -3.80000000
   H    114.36000000    47.95000000     0.20000000
   H    115.62000000    49.68000000     0.87000000
   H    116.13000000    51.59000000    -0.67000000
   H    114.92000000    50.76000000    -1.79000000
   H    116.50000000    48.79000000    -1.82000000
   H    117.50000000    49.62000000    -0.65000000
   H    118.51000000    51.87000000    -1.43000000
   H    118.68000000    51.94000000    -3.20000000
   N    114.41000000    52.08000000     1.36000000
   C    113.62000000    53.26000000     1.65000000
   C    114.37000000    54.25000000     2.54000000
   O    115.60000000    54.35000000     2.56000000
   C    113.07000000    53.98000000     0.43000000
   C    111.98000000    53.31000000    -0.40000000
   C    114.24000000    54.45000000    -0.44000000
   H    115.41000000    52.19000000     1.36000000
   H    112.78000000    52.98000000     2.29000000
   H    112.62000000    54.85000000     0.91000000
   H    111.41000000    54.05000000    -0.96000000
   H    112.41000000    52.61000000    -1.12000000
   H    111.33000000    52.76000000     0.29000000
   H    114.82000000    53.58000000    -0.75000000
   H    113.93000000    55.01000000    -1.32000000
   H    114.83000000    55.12000000     0.19000000
   N    113.67000000    55.08000000     3.31000000
   C    114.11000000    56.25000000     4.04000000
   C    113.69000000    57.61000000     3.49000000
   O    113.98000000    58.66000000     4.05000000
   C    113.76000000    56.09000000     5.52000000
   C    114.47000000    57.11000000     6.39000000
   N    113.76000000    58.04000000     7.04000000
   O    115.67000000    56.98000000     6.59000000
   H    112.73000000    54.77000000     3.47000000
   H    115.20000000    56.28000000     4.12000000
   H    114.17000000    55.18000000     5.96000000
   H    112.69000000    56.22000000     5.66000000
   H    112.75000000    58.04000000     6.98000000
   H    114.21000000    58.52000000     7.80000000
   N    113.08000000    57.67000000     2.30000000
   C    112.76000000    58.91000000     1.63000000
   C    111.50000000    58.81000000     0.79000000
   O    111.28000000    57.78000000     0.15000000
   C    113.93000000    59.22000000     0.70000000
   C    113.91000000    60.60000000     0.08000000
   C    113.20000000    60.89000000    -1.09000000
   C    114.55000000    61.62000000     0.80000000
   C    113.18000000    62.20000000    -1.60000000
   C    114.63000000    62.92000000     0.28000000
   C    114.00000000    63.14000000    -0.96000000
   O    114.07000000    64.35000000    -1.59000000
   H    112.73000000    56.81000000     1.89000000
   H    112.61000000    59.75000000     2.30000000
   H    113.99000000    58.53000000    -0.14000000
   H    114.73000000    59.12000000     1.43000000
   H    112.77000000    60.11000000    -1.69000000
   H    115.01000000    61.45000000     1.76000000
   H    112.67000000    62.49000000    -2.51000000
   H    115.12000000    63.68000000     0.87000000
   H    113.73000000    64.29000000    -2.48000000
   N    110.61000000    59.81000000     0.74000000
   C    109.56000000    59.87000000    -0.26000000
   C    108.32000000    59.09000000     0.15000000
   O    107.91000000    59.03000000     1.31000000
   C    109.25000000    61.35000000    -0.47000000
   C    108.08000000    61.65000000    -1.41000000
   C    108.08000000    63.06000000    -1.97000000
   O    108.15000000    63.22000000    -3.21000000
   O    108.08000000    63.93000000    -1.07000000
   H    110.88000000    60.63000000     1.27000000
   H    109.82000000    59.57000000    -1.28000000
   H    110.16000000    61.73000000    -0.93000000
   H    109.12000000    61.97000000     0.41000000
   H    107.14000000    61.46000000    -0.89000000
   H    108.10000000    61.00000000    -2.28000000
   N    107.59000000    58.53000000    -0.81000000
   C    106.33000000    57.83000000    -0.64000000
   C    106.67000000    56.46000000    -0.06000000
   O    106.59000000    55.44000000    -0.74000000
   C    105.36000000    57.87000000    -1.81000000
   C    103.92000000    57.51000000    -1.46000000
   C    103.70000000    56.02000000    -1.25000000
   O    103.59000000    55.30000000    -2.26000000
   O    103.52000000    55.51000000    -0.12000000
   H    108.04000000    58.40000000    -1.70000000
   H    105.74000000    58.47000000     0.01000000
   H    105.80000000    57.18000000    -2.54000000
   H    105.41000000    58.84000000    -2.31000000
   H    103.32000000    57.74000000    -2.34000000
   H    103.62000000    58.07000000    -0.57000000
   N    107.09000000    56.41000000     1.21000000
   C    107.58000000    55.20000000     1.83000000
   H    108.50600000    55.41500000     2.36300000
   H    106.83600000    54.82400000     2.53200000
   H    107.76900000    54.44900000     1.06300000
   H    107.04000000    57.31000000     1.66000000
  Ca    102.78500000    52.89000000    -1.80500000
   O    102.00500000    50.72000000    -3.38500000
   H    101.05500000    50.83000000    -3.34500000
   H    102.13500000    49.77000000    -3.43500000
   O    105.26500000    53.19000000    -0.73500000
   H    106.01500000    52.66000000    -1.01500000
   H    105.63500000    54.05000000    -0.51500000
   O    104.54500000    52.22000000    -3.88500000
   H    104.09500000    51.77000000    -4.59500000
   H    105.41500000    51.82000000    -3.86500000
   O    101.36500000    53.91000000    -3.90500000
   H    101.96500000    54.04000000    -4.64500000
   H    100.58500000    53.51000000    -4.29500000

Ca 1.00



