%chk=loop4.apoCaM-CA-Ng.Init31.run13.water6.chk
%nprocshared=20
%mem=10GB
%nosave
#b3lyp/svp scf=(tight,noincore,xqc) Test 
#IOP(5/87=12) Density=Current Pop=(MK,readradii) iop(6/33=2) iop(6/42=6)

loop4.apoCaM-CA-Ng.Init31.run13.water6 

   -3  1 
   C     81.86000000    74.87000000    23.42000000
   C     83.25000000    74.75000000    24.03000000
   O     84.09000000    74.01000000    23.51000000
   H     81.19700000    75.37100000    24.12500000
   H     81.91600000    75.45000000    22.49900000
   H     81.47200000    73.87500000    23.20100000
   N     83.54000000    75.21000000    25.25000000
   C     82.72000000    75.74000000    26.32000000
   C     82.93000000    77.20000000    26.70000000
   O     82.13000000    77.81000000    27.40000000
   C     82.75000000    74.94000000    27.61000000
   C     82.59000000    73.45000000    27.32000000
   O     81.53000000    73.10000000    26.76000000
   O     83.42000000    72.62000000    27.74000000
   H     84.53000000    75.11000000    25.40000000
   H     81.68000000    75.72000000    25.99000000
   H     82.01000000    75.27000000    28.34000000
   H     83.75000000    75.05000000    28.03000000
   N     84.03000000    77.79000000    26.22000000
   C     84.43000000    79.14000000    26.53000000
   C     85.37000000    79.28000000    27.73000000
   O     85.46000000    80.39000000    28.24000000
   C     85.02000000    79.82000000    25.30000000
   C     85.38000000    81.29000000    25.50000000
   C     86.11000000    78.96000000    24.67000000
   C     85.24000000    82.07000000    24.19000000
   H     84.63000000    77.14000000    25.72000000
   H     83.61000000    79.82000000    26.78000000
   H     84.22000000    79.76000000    24.57000000
   H     86.38000000    81.38000000    25.94000000
   H     84.64000000    81.72000000    26.16000000
   H     86.98000000    78.83000000    25.31000000
   H     85.77000000    77.95000000    24.42000000
   H     86.42000000    79.45000000    23.75000000
   H     85.59000000    83.09000000    24.37000000
   H     85.88000000    81.59000000    23.45000000
   H     84.25000000    81.96000000    23.77000000
   N     86.06000000    78.20000000    28.09000000
   C     87.11000000    78.18000000    29.09000000
   C     87.36000000    76.79000000    29.66000000
   O     87.56000000    76.64000000    30.87000000
   C     88.33000000    78.69000000    28.33000000
   C     89.51000000    78.83000000    29.29000000
   O     89.38000000    79.49000000    30.34000000
   O     90.57000000    78.28000000    28.92000000
   H     85.94000000    77.38000000    27.51000000
   H     86.86000000    78.90000000    29.87000000
   H     88.08000000    79.71000000    28.06000000
   H     88.46000000    78.01000000    27.49000000
   N     87.25000000    75.74000000    28.84000000
   C     87.40000000    74.37000000    29.28000000
   C     88.57000000    73.68000000    28.60000000
   O     89.41000000    74.41000000    28.08000000
   H     87.30000000    75.88000000    27.85000000
   H     86.44000000    73.90000000    29.06000000
   H     87.54000000    74.36000000    30.36000000
   N     88.63000000    72.35000000    28.71000000
   C     89.72000000    71.49000000    28.30000000
   C     90.84000000    71.42000000    29.32000000
   O     90.55000000    71.40000000    30.52000000
   C     89.34000000    70.07000000    27.87000000
   C     87.95000000    69.89000000    27.29000000
   O     86.95000000    69.79000000    28.05000000
   O     87.85000000    69.66000000    26.07000000
   H     87.85000000    72.00000000    29.25000000
   H     90.15000000    72.00000000    27.44000000
   H     89.49000000    69.36000000    28.68000000
   H     90.05000000    69.77000000    27.09000000
   N     92.14000000    71.41000000    29.01000000
   C     92.84000000    71.56000000    27.75000000
   C     94.26000000    72.07000000    27.92000000
   O     94.74000000    72.18000000    29.05000000
   H     92.77000000    71.42000000    29.80000000
   H     92.28000000    72.27000000    27.14000000
   H     92.92000000    70.57000000    27.30000000
   N     95.08000000    72.31000000    26.89000000
   C     94.78000000    72.26000000    25.48000000
   C     93.62000000    73.17000000    25.07000000
   O     93.15000000    73.94000000    25.90000000
   C     94.63000000    70.83000000    24.97000000
   C     95.87000000    69.96000000    25.11000000
   C     96.89000000    70.25000000    24.02000000
   N     96.70000000    69.70000000    22.82000000
   O     97.86000000    70.97000000    24.24000000
   H     96.01000000    72.43000000    27.26000000
   H     95.63000000    72.68000000    24.95000000
   H     94.35000000    70.88000000    23.92000000
   H     93.85000000    70.26000000    25.49000000
   H     95.68000000    68.89000000    25.01000000
   H     96.36000000    70.10000000    26.07000000
   H     95.87000000    69.17000000    22.57000000
   H     97.32000000    69.86000000    22.04000000
   N     93.03000000    73.01000000    23.89000000
   C     92.03000000    73.89000000    23.30000000
   C     92.46000000    74.60000000    22.02000000
   O     93.59000000    74.32000000    21.63000000
   C     90.68000000    73.17000000    23.25000000
   C     90.32000000    72.57000000    24.60000000
   C     90.69000000    72.00000000    22.27000000
   H     93.53000000    72.38000000    23.28000000
   H     91.94000000    74.77000000    23.94000000
   H     89.92000000    73.90000000    22.99000000
   H     90.45000000    73.32000000    25.38000000
   H     89.28000000    72.25000000    24.60000000
   H     90.91000000    71.69000000    24.86000000
   H     91.06000000    72.40000000    21.32000000
   H     91.34000000    71.19000000    22.60000000
   H     89.72000000    71.52000000    22.14000000
   N     91.68000000    75.51000000    21.45000000
   C     92.12000000    76.28000000    20.30000000
   C     91.40000000    76.05000000    18.98000000
   O     92.04000000    75.76000000    17.97000000
   C     91.92000000    77.72000000    20.76000000
   C     92.73000000    78.20000000    21.96000000
   N     92.18000000    77.98000000    23.15000000
   O     93.78000000    78.82000000    21.78000000
   H     90.85000000    75.86000000    21.90000000
   H     93.17000000    76.08000000    20.09000000
   H     90.88000000    77.94000000    21.03000000
   H     92.11000000    78.38000000    19.92000000
   H     91.28000000    77.53000000    23.21000000
   H     92.66000000    78.43000000    23.91000000
   N     90.09000000    76.31000000    18.97000000
   C     89.16000000    76.09000000    17.89000000
   C     89.01000000    74.70000000    17.27000000
   O     90.01000000    74.00000000    17.13000000
   C     89.39000000    77.24000000    16.92000000
   C     88.72000000    77.06000000    15.58000000
   C     89.55000000    76.50000000    14.59000000
   C     87.43000000    77.52000000    15.32000000
   C     89.02000000    76.43000000    13.30000000
   C     86.88000000    77.34000000    14.04000000
   C     87.68000000    76.77000000    13.03000000
   O     87.25000000    76.60000000    11.74000000
   H     89.63000000    76.39000000    19.87000000
   H     88.20000000    76.31000000    18.35000000
   H     90.47000000    77.36000000    16.80000000
   H     89.04000000    78.19000000    17.34000000
   H     90.51000000    76.08000000    14.84000000
   H     86.83000000    78.07000000    16.03000000
   H     89.54000000    76.01000000    12.45000000
   H     85.97000000    77.83000000    13.73000000
   H     86.38000000    76.98000000    11.67000000
   N     87.78000000    74.34000000    16.90000000
   C     87.38000000    72.96000000    16.71000000
   C     85.96000000    72.71000000    17.20000000
   O     84.97000000    72.72000000    16.48000000
   C     87.56000000    72.60000000    15.23000000
   C     87.45000000    71.10000000    14.96000000
   C     87.57000000    70.66000000    13.51000000
   O     86.88000000    71.22000000    12.63000000
   O     88.45000000    69.81000000    13.26000000
   H     87.01000000    74.99000000    16.84000000
   H     87.96000000    72.22000000    17.26000000
   H     88.54000000    72.96000000    14.92000000
   H     86.83000000    73.14000000    14.64000000
   H     86.51000000    70.76000000    15.40000000
   H     88.24000000    70.58000000    15.49000000
   N     85.77000000    72.49000000    18.51000000
   C     84.47000000    72.49000000    19.15000000
   C     83.88000000    73.89000000    19.26000000
   O     82.85000000    74.24000000    18.68000000
   C     84.52000000    71.87000000    20.54000000
   C     84.68000000    70.36000000    20.42000000
   C     84.86000000    69.86000000    21.85000000
   O     86.02000000    69.64000000    22.24000000
   O     83.93000000    69.79000000    22.69000000
   H     86.64000000    72.45000000    19.01000000
   H     83.85000000    71.87000000    18.51000000
   H     83.55000000    72.19000000    20.93000000
   H     85.34000000    72.35000000    21.07000000
   H     85.54000000    70.21000000    19.76000000
   H     83.81000000    69.97000000    19.91000000
   N     84.54000000    74.80000000    19.99000000
   C     84.51000000    76.24000000    19.81000000
   H     83.80800000    76.68000000    20.51900000
   H     85.50500000    76.64900000    19.98400000
   H     84.19300000    76.47300000    18.79300000
   H     85.30000000    74.40000000    20.52000000
  Ca     82.01000000    70.57000000    26.85000000
   O     84.63000000    69.76000000    26.86000000
   H     85.54000000    69.91000000    27.12000000
   H     84.69000000    69.36000000    26.00000000
   O     80.59000000    68.57000000    27.51000000
   H     80.59000000    67.77000000    26.98000000
   H     79.87000000    68.44000000    28.13000000
   O     83.30000000    69.83000000    29.22000000
   H     83.99000000    69.28000000    28.87000000
   H     83.75000000    70.48000000    29.75000000
   O     79.93000000    71.21000000    28.38000000
   H     79.46000000    70.97000000    29.18000000
   H     79.26000000    71.23000000    27.70000000
   O     82.20000000    68.68000000    24.84000000
   H     81.91000000    67.76000000    24.81000000
   H     82.76000000    68.77000000    24.06000000
   O     83.40000000    71.51000000    24.61000000
   H     83.60000000    72.33000000    24.15000000
   H     83.78000000    70.83000000    24.05000000

Ca 1.00



