%chk=loop4.holoCaM-CaMKII.run62.water2.chk
%nprocshared=20
%mem=10GB
%nosave
#b3lyp/svp scf=(tight,noincore,xqc) Test 
#IOP(5/87=12) Density=Current Pop=(MK,readradii) iop(6/33=2) iop(6/42=6)

loop4.holoCaM-CaMKII.run62.water2 

   -3  1 
   C     31.06000000    44.73000000    16.63000000
   C     32.19000000    43.78000000    16.28000000
   O     32.27000000    42.71000000    16.87000000
   H     30.18300000    44.15600000    16.93000000
   H     31.36900000    45.37600000    17.45200000
   H     30.81500000    45.34000000    15.76000000
   N     33.17000000    44.13000000    15.43000000
   C     34.37000000    43.36000000    15.18000000
   C     35.48000000    43.73000000    16.15000000
   O     35.81000000    44.89000000    16.41000000
   C     34.83000000    43.66000000    13.75000000
   C     36.28000000    43.33000000    13.42000000
   O     36.92000000    44.13000000    12.71000000
   O     36.75000000    42.25000000    13.82000000
   H     33.18000000    45.05000000    15.01000000
   H     34.11000000    42.31000000    15.21000000
   H     34.76000000    44.75000000    13.71000000
   H     34.20000000    43.20000000    12.99000000
   N     36.00000000    42.70000000    16.82000000
   C     36.77000000    42.79000000    18.05000000
   C     38.27000000    42.67000000    17.82000000
   O     39.03000000    43.39000000    18.47000000
   C     36.26000000    41.85000000    19.13000000
   C     34.75000000    41.86000000    19.35000000
   C     37.05000000    42.03000000    20.43000000
   C     34.25000000    40.72000000    20.24000000
   H     35.67000000    41.77000000    16.60000000
   H     36.67000000    43.79000000    18.47000000
   H     36.46000000    40.83000000    18.82000000
   H     34.30000000    41.74000000    18.37000000
   H     34.36000000    42.82000000    19.68000000
   H     36.88000000    41.10000000    20.97000000
   H     38.11000000    41.99000000    20.19000000
   H     36.87000000    42.94000000    20.98000000
   H     33.19000000    40.58000000    20.04000000
   H     34.71000000    39.75000000    20.05000000
   H     34.35000000    41.05000000    21.28000000
   N     38.70000000    41.85000000    16.86000000
   C     40.06000000    41.68000000    16.39000000
   C     40.58000000    42.66000000    15.35000000
   O     41.77000000    42.97000000    15.43000000
   C     40.37000000    40.24000000    15.99000000
   C     39.40000000    39.59000000    15.01000000
   O     39.75000000    38.46000000    14.61000000
   O     38.34000000    40.11000000    14.60000000
   H     38.00000000    41.41000000    16.28000000
   H     40.66000000    41.79000000    17.30000000
   H     40.44000000    39.57000000    16.85000000
   H     41.33000000    40.17000000    15.48000000
   N     39.78000000    42.97000000    14.34000000
   C     40.20000000    43.94000000    13.35000000
   C     40.41000000    43.33000000    11.97000000
   O     41.48000000    43.43000000    11.38000000
   H     38.81000000    42.69000000    14.42000000
   H     41.22000000    44.29000000    13.51000000
   H     39.55000000    44.81000000    13.25000000
   N     39.28000000    42.85000000    11.44000000
   C     39.20000000    42.30000000    10.10000000
   C     37.99000000    42.91000000     9.42000000
   O     37.72000000    42.61000000     8.26000000
   C     39.10000000    40.78000000    10.24000000
   C     37.99000000    40.19000000    11.09000000
   O     38.12000000    39.09000000    11.66000000
   O     36.84000000    40.68000000    11.01000000
   H     38.48000000    42.79000000    12.05000000
   H     40.14000000    42.45000000     9.57000000
   H     40.03000000    40.37000000    10.65000000
   H     38.96000000    40.30000000     9.28000000
   N     37.04000000    43.55000000    10.11000000
   C     35.86000000    44.13000000     9.50000000
   C     34.66000000    43.22000000     9.25000000
   O     33.76000000    43.61000000     8.52000000
   H     37.14000000    43.68000000    11.10000000
   H     36.17000000    44.44000000     8.51000000
   H     35.51000000    45.02000000    10.03000000
   N     34.60000000    42.02000000     9.83000000
   C     33.47000000    41.11000000     9.85000000
   C     33.13000000    40.67000000    11.27000000
   O     34.00000000    40.60000000    12.13000000
   C     33.84000000    39.90000000     9.00000000
   C     33.72000000    40.11000000     7.49000000
   C     34.13000000    38.94000000     6.62000000
   N     34.81000000    39.28000000     5.53000000
   O     33.84000000    37.75000000     6.78000000
   H     35.39000000    41.72000000    10.38000000
   H     32.56000000    41.58000000     9.47000000
   H     33.25000000    39.03000000     9.26000000
   H     34.86000000    39.62000000     9.24000000
   H     34.43000000    40.91000000     7.26000000
   H     32.72000000    40.39000000     7.14000000
   H     35.05000000    40.21000000     5.19000000
   H     35.06000000    38.53000000     4.90000000
   N     31.84000000    40.40000000    11.48000000
   C     31.24000000    39.98000000    12.73000000
   C     30.84000000    38.52000000    12.64000000
   O     30.07000000    38.17000000    11.74000000
   C     30.05000000    40.81000000    13.20000000
   C     29.77000000    40.76000000    14.70000000
   C     30.19000000    42.30000000    12.88000000
   H     31.14000000    40.50000000    10.76000000
   H     32.03000000    40.03000000    13.49000000
   H     29.13000000    40.39000000    12.80000000
   H     29.82000000    39.70000000    14.93000000
   H     30.54000000    41.35000000    15.19000000
   H     28.77000000    41.11000000    14.95000000
   H     30.23000000    42.44000000    11.80000000
   H     29.26000000    42.72000000    13.26000000
   H     31.14000000    42.57000000    13.36000000
   N     31.48000000    37.66000000    13.43000000
   C     31.07000000    36.28000000    13.56000000
   C     30.12000000    35.99000000    14.73000000
   O     29.80000000    36.88000000    15.51000000
   C     32.34000000    35.43000000    13.57000000
   C     33.01000000    35.21000000    14.92000000
   N     34.05000000    35.97000000    15.28000000
   O     32.75000000    34.21000000    15.57000000
   H     32.33000000    38.05000000    13.80000000
   H     30.42000000    36.06000000    12.71000000
   H     32.98000000    35.96000000    12.86000000
   H     32.19000000    34.43000000    13.18000000
   H     34.19000000    36.86000000    14.81000000
   H     34.57000000    35.65000000    16.08000000
   N     29.73000000    34.74000000    14.96000000
   C     28.79000000    34.38000000    16.00000000
   C     29.38000000    34.76000000    17.35000000
   O     28.72000000    35.48000000    18.10000000
   C     28.27000000    32.94000000    15.94000000
   C     27.08000000    32.62000000    16.81000000
   C     25.85000000    33.24000000    16.57000000
   C     27.20000000    31.61000000    17.77000000
   C     24.79000000    32.98000000    17.45000000
   C     26.21000000    31.41000000    18.74000000
   C     25.01000000    32.10000000    18.52000000
   O     23.97000000    31.83000000    19.36000000
   H     30.03000000    34.02000000    14.32000000
   H     27.91000000    34.98000000    15.79000000
   H     29.00000000    32.15000000    16.12000000
   H     27.87000000    32.90000000    14.93000000
   H     25.73000000    33.84000000    15.68000000
   H     28.17000000    31.13000000    17.84000000
   H     23.77000000    33.24000000    17.21000000
   H     26.38000000    30.71000000    19.55000000
   H     24.12000000    31.28000000    20.14000000
   N     30.67000000    34.48000000    17.55000000
   C     31.38000000    34.75000000    18.79000000
   C     31.92000000    36.17000000    18.88000000
   O     32.85000000    36.42000000    19.64000000
   C     32.32000000    33.66000000    19.29000000
   C     31.54000000    32.66000000    20.14000000
   C     32.52000000    31.70000000    20.80000000
   O     32.79000000    30.60000000    20.26000000
   O     32.90000000    32.05000000    21.93000000
   H     31.07000000    33.99000000    16.77000000
   H     30.67000000    34.93000000    19.59000000
   H     33.20000000    33.98000000    19.86000000
   H     32.70000000    33.15000000    18.41000000
   H     30.84000000    32.10000000    19.52000000
   H     30.89000000    33.24000000    20.78000000
   N     31.30000000    37.12000000    18.16000000
   C     31.52000000    38.53000000    18.36000000
   C     30.21000000    39.31000000    18.47000000
   O     30.09000000    40.24000000    19.26000000
   C     32.25000000    39.10000000    17.15000000
   C     33.71000000    38.65000000    17.05000000
   C     34.41000000    39.17000000    15.80000000
   O     35.07000000    40.23000000    15.80000000
   O     34.27000000    38.61000000    14.69000000
   H     30.68000000    36.91000000    17.40000000
   H     31.95000000    38.73000000    19.34000000
   H     32.29000000    40.18000000    17.23000000
   H     31.70000000    38.83000000    16.25000000
   H     33.83000000    37.59000000    17.26000000
   H     34.29000000    39.08000000    17.87000000
   N     29.16000000    38.77000000    17.84000000
   C     27.79000000    39.24000000    17.87000000
   H     27.15500000    38.47900000    18.32500000
   H     27.73300000    40.15800000    18.45500000
   H     27.45000000    39.43500000    16.85300000
   H     29.38000000    37.99000000    17.23000000
  Ca     36.11000000    39.79000000    13.34000000
   O     37.20000000    37.48000000    14.39000000
   H     38.15000000    37.62000000    14.47000000
   H     36.95000000    37.06000000    15.21000000
   O     35.40000000    37.90000000    11.53000000
   H     35.42000000    37.02000000    11.92000000
   H     36.10000000    37.89000000    10.87000000

Ca 1.00



