%chk=loop4.holoCaM-CaMKII.run52.water1.chk
%nprocshared=20
%mem=10GB
%nosave
#b3lyp/svp scf=(tight,noincore,xqc) Test 
#IOP(5/87=12) Density=Current Pop=(MK,readradii) iop(6/33=2) iop(6/42=6)

loop4.holoCaM-CaMKII.run52.water1 

   -3  1 
   C     38.96000000    67.95000000    14.52000000
   C     39.75000000    67.91000000    15.82000000
   O     39.13000000    67.97000000    16.88000000
   H     38.06500000    68.55600000    14.65800000
   H     39.57600000    68.38600000    13.73300000
   H     38.67300000    66.93700000    14.23700000
   N     41.09000000    67.85000000    15.84000000
   C     41.92000000    67.71000000    17.02000000
   C     42.17000000    69.00000000    17.79000000
   O     42.48000000    70.01000000    17.15000000
   C     43.21000000    67.01000000    16.58000000
   C     43.76000000    66.21000000    17.74000000
   O     44.11000000    65.01000000    17.60000000
   O     43.90000000    66.69000000    18.89000000
   H     41.58000000    67.91000000    14.96000000
   H     41.38000000    67.03000000    17.68000000
   H     43.93000000    67.71000000    16.16000000
   H     42.97000000    66.30000000    15.78000000
   N     42.26000000    68.92000000    19.12000000
   C     42.66000000    69.99000000    20.01000000
   C     44.03000000    69.91000000    20.67000000
   O     44.51000000    70.89000000    21.24000000
   C     41.57000000    70.18000000    21.06000000
   C     41.44000000    69.01000000    22.04000000
   C     40.32000000    70.58000000    20.29000000
   C     40.47000000    69.22000000    23.20000000
   H     42.39000000    67.98000000    19.47000000
   H     42.77000000    70.86000000    19.37000000
   H     41.89000000    71.08000000    21.59000000
   H     42.38000000    68.82000000    22.57000000
   H     41.13000000    68.15000000    21.45000000
   H     39.88000000    69.76000000    19.72000000
   H     39.57000000    70.88000000    21.02000000
   H     40.56000000    71.49000000    19.75000000
   H     40.55000000    70.20000000    23.67000000
   H     39.47000000    69.02000000    22.83000000
   H     40.65000000    68.44000000    23.94000000
   N     44.60000000    68.71000000    20.64000000
   C     45.94000000    68.42000000    21.12000000
   C     46.98000000    68.21000000    20.03000000
   O     48.15000000    68.44000000    20.34000000
   C     45.98000000    67.34000000    22.20000000
   C     45.34000000    66.05000000    21.71000000
   O     44.26000000    65.68000000    22.21000000
   O     45.91000000    65.41000000    20.79000000
   H     44.12000000    68.02000000    20.07000000
   H     46.29000000    69.31000000    21.64000000
   H     45.36000000    67.67000000    23.03000000
   H     47.00000000    67.13000000    22.54000000
   N     46.62000000    67.72000000    18.84000000
   C     47.42000000    67.65000000    17.64000000
   C     48.11000000    66.34000000    17.29000000
   O     48.97000000    66.27000000    16.42000000
   H     45.71000000    67.32000000    18.67000000
   H     48.14000000    68.45000000    17.78000000
   H     46.84000000    67.87000000    16.74000000
   N     47.75000000    65.26000000    17.99000000
   C     48.35000000    63.97000000    17.72000000
   C     47.63000000    63.19000000    16.63000000
   O     48.08000000    62.18000000    16.10000000
   C     48.29000000    63.22000000    19.05000000
   C     46.95000000    62.83000000    19.65000000
   O     45.84000000    63.11000000    19.14000000
   O     46.97000000    62.10000000    20.66000000
   H     47.06000000    65.36000000    18.72000000
   H     49.43000000    63.97000000    17.53000000
   H     48.94000000    63.65000000    19.81000000
   H     48.71000000    62.23000000    18.87000000
   N     46.47000000    63.69000000    16.20000000
   C     45.71000000    63.23000000    15.06000000
   C     45.03000000    61.90000000    15.39000000
   O     44.88000000    61.01000000    14.56000000
   H     46.00000000    64.40000000    16.74000000
   H     46.27000000    63.22000000    14.13000000
   H     44.85000000    63.89000000    14.96000000
   N     44.63000000    61.82000000    16.66000000
   C     43.76000000    60.80000000    17.21000000
   C     42.60000000    61.48000000    17.92000000
   O     42.80000000    62.15000000    18.93000000
   C     44.45000000    59.89000000    18.22000000
   C     45.39000000    58.91000000    17.53000000
   C     44.78000000    57.88000000    16.59000000
   N     44.76000000    58.12000000    15.28000000
   O     44.23000000    56.85000000    16.99000000
   H     44.79000000    62.68000000    17.17000000
   H     43.46000000    60.08000000    16.45000000
   H     43.71000000    59.43000000    18.88000000
   H     45.06000000    60.49000000    18.89000000
   H     45.91000000    58.30000000    18.26000000
   H     46.00000000    59.58000000    16.92000000
   H     45.02000000    59.05000000    14.96000000
   H     44.35000000    57.41000000    14.69000000
   N     41.46000000    61.66000000    17.24000000
   C     40.35000000    62.50000000    17.65000000
   C     39.51000000    61.63000000    18.58000000
   O     38.79000000    60.72000000    18.16000000
   C     39.57000000    62.97000000    16.43000000
   C     38.42000000    63.86000000    16.90000000
   C     40.32000000    63.74000000    15.35000000
   H     41.35000000    61.35000000    16.29000000
   H     40.70000000    63.37000000    18.20000000
   H     39.24000000    62.03000000    16.00000000
   H     38.77000000    64.84000000    17.23000000
   H     37.75000000    63.95000000    16.05000000
   H     37.75000000    63.46000000    17.67000000
   H     41.19000000    63.18000000    15.03000000
   H     39.69000000    63.80000000    14.47000000
   H     40.74000000    64.69000000    15.68000000
   N     39.43000000    62.00000000    19.86000000
   C     38.52000000    61.41000000    20.81000000
   C     37.10000000    61.95000000    20.74000000
   O     36.83000000    62.99000000    20.13000000
   C     39.11000000    61.61000000    22.21000000
   C     38.29000000    60.94000000    23.31000000
   N     38.07000000    59.63000000    23.14000000
   O     37.72000000    61.58000000    24.19000000
   H     40.00000000    62.78000000    20.16000000
   H     38.40000000    60.34000000    20.63000000
   H     39.14000000    62.69000000    22.33000000
   H     40.17000000    61.36000000    22.19000000
   H     38.59000000    59.18000000    22.41000000
   H     37.69000000    59.06000000    23.88000000
   N     36.17000000    61.23000000    21.36000000
   C     34.78000000    61.61000000    21.52000000
   C     34.56000000    63.02000000    22.03000000
   O     33.82000000    63.79000000    21.42000000
   C     33.96000000    60.57000000    22.27000000
   C     32.51000000    60.94000000    22.48000000
   C     31.67000000    61.17000000    21.38000000
   C     32.01000000    61.06000000    23.78000000
   C     30.30000000    61.43000000    21.51000000
   C     30.64000000    61.33000000    23.91000000
   C     29.76000000    61.48000000    22.81000000
   O     28.50000000    61.91000000    23.10000000
   H     36.43000000    60.38000000    21.84000000
   H     34.25000000    61.61000000    20.56000000
   H     34.52000000    60.31000000    23.17000000
   H     33.97000000    59.66000000    21.66000000
   H     32.01000000    61.05000000    20.36000000
   H     32.74000000    61.00000000    24.57000000
   H     29.69000000    61.52000000    20.63000000
   H     30.41000000    61.56000000    24.94000000
   H     28.14000000    61.79000000    23.99000000
   N     35.32000000    63.38000000    23.07000000
   C     35.19000000    64.71000000    23.62000000
   C     35.72000000    65.89000000    22.81000000
   O     35.20000000    67.00000000    22.85000000
   C     35.84000000    64.73000000    25.00000000
   C     34.88000000    63.93000000    25.88000000
   C     35.27000000    63.84000000    27.35000000
   O     35.37000000    64.86000000    28.07000000
   O     35.56000000    62.76000000    27.92000000
   H     36.11000000    62.79000000    23.30000000
   H     34.13000000    64.91000000    23.79000000
   H     35.80000000    65.73000000    25.44000000
   H     36.85000000    64.31000000    24.95000000
   H     34.81000000    62.91000000    25.52000000
   H     33.90000000    64.40000000    25.83000000
   N     36.60000000    65.62000000    21.84000000
   C     37.08000000    66.52000000    20.82000000
   C     36.11000000    66.72000000    19.65000000
   O     35.69000000    67.81000000    19.27000000
   C     38.46000000    66.11000000    20.33000000
   C     39.49000000    65.62000000    21.34000000
   C     40.78000000    65.05000000    20.76000000
   O     41.39000000    65.80000000    19.96000000
   O     41.20000000    63.91000000    21.05000000
   H     37.07000000    64.73000000    21.88000000
   H     37.10000000    67.52000000    21.26000000
   H     38.91000000    66.92000000    19.75000000
   H     38.27000000    65.31000000    19.61000000
   H     39.13000000    64.87000000    22.05000000
   H     39.81000000    66.47000000    21.94000000
   N     35.59000000    65.59000000    19.19000000
   C     34.61000000    65.52000000    18.12000000
   H     33.74900000    66.13700000    18.37600000
   H     35.05500000    65.88500000    17.19400000
   H     34.28900000    64.48700000    17.98700000
   H     35.89000000    64.76000000    19.69000000
  Ca     43.67000000    64.33000000    20.01000000
   O     44.48000000    62.67000000    22.00000000
   H     44.42000000    62.31000000    22.89000000
   H     45.30000000    62.31000000    21.66000000

Ca 1.00



