%chk=loop2.apoCaM-CA-Ng.Init293.run86.water7.chk
%nprocshared=20
%mem=10GB
%nosave
#b3lyp/svp scf=(tight,noincore,xqc) Test 
#IOP(5/87=12) Density=Current Pop=(MK,readradii) iop(6/33=2) iop(6/42=6)

loop2.apoCaM-CA-Ng.Init293.run86.water7 

   -2  1 
   C     70.55000000   117.94000000    10.32000000
   C     71.34000000   118.85000000    11.24000000
   O     70.92000000   119.34000000    12.28000000
   H     69.63700000   118.44600000    10.00600000
   H     71.15100000   117.69900000     9.44300000
   H     70.29300000   117.02200000    10.84900000
   N     72.48000000   119.39000000    10.78000000
   C     73.36000000   120.34000000    11.43000000
   C     72.76000000   121.74000000    11.41000000
   O     72.79000000   122.42000000    12.43000000
   C     74.65000000   120.18000000    10.64000000
   C     75.89000000   120.91000000    11.14000000
   O     75.81000000   121.52000000    12.23000000
   O     76.95000000   120.94000000    10.48000000
   H     72.70000000   119.08000000     9.85000000
   H     73.56000000   120.12000000    12.48000000
   H     74.56000000   120.48000000     9.59000000
   H     74.94000000   119.13000000    10.63000000
   N     72.05000000   122.06000000    10.32000000
   C     71.30000000   123.30000000    10.23000000
   C     70.18000000   123.50000000    11.24000000
   O     69.85000000   124.64000000    11.58000000
   C     72.27000000   124.43000000     9.92000000
   H     72.26000000   121.49000000     9.52000000
   H     70.79000000   123.20000000     9.27000000
   H     71.87000000   125.44000000     9.97000000
   H     73.12000000   124.46000000    10.61000000
   H     72.67000000   124.36000000     8.90000000
   N     69.67000000   122.35000000    11.68000000
   C     68.62000000   122.29000000    12.67000000
   C     68.94000000   122.92000000    14.02000000
   O     68.05000000   123.34000000    14.76000000
   C     67.26000000   122.82000000    12.23000000
   C     66.83000000   122.32000000    10.85000000
   O     66.46000000   123.09000000     9.94000000
   O     66.61000000   121.11000000    10.65000000
   H     69.92000000   121.49000000    11.21000000
   H     68.50000000   121.23000000    12.89000000
   H     67.42000000   123.89000000    12.17000000
   H     66.45000000   122.59000000    12.92000000
   N     70.24000000   123.09000000    14.26000000
   C     70.81000000   123.65000000    15.47000000
   C     70.31000000   122.99000000    16.75000000
   O     69.74000000   121.91000000    16.75000000
   H     70.81000000   123.17000000    13.43000000
   H     70.45000000   124.68000000    15.45000000
   H     71.89000000   123.56000000    15.45000000
   N     70.23000000   123.79000000    17.82000000
   C     69.61000000   123.38000000    19.06000000
   C     70.12000000   122.08000000    19.66000000
   O     69.37000000   121.25000000    20.17000000
   C     68.09000000   123.56000000    19.04000000
   C     67.57000000   124.97000000    18.79000000
   N     67.88000000   125.93000000    19.66000000
   O     66.90000000   125.31000000    17.81000000
   H     70.61000000   124.72000000    17.82000000
   H     69.91000000   124.09000000    19.84000000
   H     67.62000000   123.22000000    19.96000000
   H     67.69000000   122.88000000    18.29000000
   H     68.40000000   125.64000000    20.48000000
   H     67.65000000   126.88000000    19.44000000
   N     71.45000000   121.93000000    19.61000000
   C     72.15000000   120.78000000    20.15000000
   C     72.23000000   119.63000000    19.15000000
   O     73.09000000   118.77000000    19.32000000
   H     71.93000000   122.65000000    19.08000000
   H     71.71000000   120.33000000    21.03000000
   H     73.15000000   121.10000000    20.44000000
   N     71.34000000   119.70000000    18.16000000
   C     71.23000000   118.82000000    17.02000000
   C     70.04000000   117.87000000    16.97000000
   O     68.94000000   118.26000000    17.34000000
   C     71.46000000   119.60000000    15.73000000
   C     72.78000000   120.36000000    15.75000000
   O     71.72000000   118.71000000    14.67000000
   H     70.55000000   120.33000000    18.25000000
   H     72.08000000   118.15000000    17.12000000
   H     70.57000000   120.17000000    15.45000000
   H     71.47000000   119.10000000    13.83000000
   H     73.59000000   119.66000000    15.96000000
   H     72.94000000   120.78000000    14.76000000
   H     72.68000000   121.15000000    16.50000000
   N     70.30000000   116.63000000    16.53000000
   C     69.26000000   115.63000000    16.37000000
   C     68.07000000   116.20000000    15.60000000
   O     68.24000000   116.84000000    14.56000000
   C     69.91000000   114.45000000    15.65000000
   C     70.83000000   113.82000000    16.70000000
   C     68.96000000   113.44000000    15.03000000
   C     71.33000000   112.39000000    16.58000000
   H     71.21000000   116.33000000    16.21000000
   H     68.76000000   115.30000000    17.28000000
   H     70.57000000   114.86000000    14.89000000
   H     70.36000000   114.01000000    17.66000000
   H     71.74000000   114.42000000    16.72000000
   H     69.47000000   112.56000000    14.62000000
   H     68.28000000   113.11000000    15.81000000
   H     68.34000000   113.92000000    14.27000000
   H     72.18000000   112.29000000    17.25000000
   H     70.60000000   111.62000000    16.81000000
   H     71.80000000   112.26000000    15.60000000
   N     66.86000000   116.02000000    16.13000000
   C     65.69000000   116.72000000    15.65000000
   C     65.01000000   117.30000000    16.88000000
   O     63.80000000   117.18000000    17.06000000
   C     64.78000000   115.80000000    14.84000000
   C     63.70000000   116.56000000    14.09000000
   O     63.95000000   117.65000000    13.55000000
   O     62.57000000   116.02000000    13.99000000
   H     66.65000000   115.25000000    16.75000000
   H     65.99000000   117.55000000    15.02000000
   H     64.33000000   115.03000000    15.47000000
   H     65.43000000   115.32000000    14.11000000
   N     65.77000000   117.94000000    17.77000000
   C     65.32000000   118.62000000    18.97000000
   C     66.28000000   118.62000000    20.14000000
   O     66.02000000   119.41000000    21.05000000
   C     64.89000000   120.03000000    18.57000000
   C     63.85000000   120.73000000    19.42000000
   C     62.62000000   120.11000000    19.69000000
   C     64.11000000   121.99000000    19.97000000
   C     61.66000000   120.76000000    20.47000000
   C     63.26000000   122.50000000    20.96000000
   C     62.00000000   121.93000000    21.17000000
   H     66.74000000   118.07000000    17.51000000
   H     64.43000000   118.10000000    19.33000000
   H     64.49000000   119.92000000    17.56000000
   H     65.71000000   120.73000000    18.51000000
   H     62.39000000   119.15000000    19.25000000
   H     65.08000000   122.42000000    19.77000000
   H     60.69000000   120.31000000    20.65000000
   H     63.44000000   123.37000000    21.57000000
   H     61.35000000   122.38000000    21.90000000
   N     67.24000000   117.71000000    20.33000000
   C     67.51000000   116.47000000    19.64000000
   C     66.42000000   115.42000000    19.75000000
   O     66.29000000   114.55000000    18.89000000
   C     68.81000000   115.93000000    20.24000000
   C     69.47000000   117.10000000    20.95000000
   C     68.26000000   117.95000000    21.33000000
   H     67.56000000   116.69000000    18.58000000
   H     68.64000000   115.12000000    20.95000000
   H     69.39000000   115.51000000    19.41000000
   H     69.95000000   116.70000000    21.85000000
   H     70.05000000   117.66000000    20.22000000
   H     67.87000000   117.70000000    22.32000000
   H     68.57000000   118.99000000    21.34000000
   N     65.58000000   115.53000000    20.78000000
   C     64.60000000   114.56000000    21.22000000
   C     65.15000000   113.15000000    21.24000000
   O     64.50000000   112.20000000    20.81000000
   C     63.28000000   114.60000000    20.44000000
   C     62.52000000   115.91000000    20.60000000
   C     61.82000000   116.04000000    21.94000000
   O     61.13000000   115.08000000    22.34000000
   O     62.03000000   117.10000000    22.58000000
   H     65.74000000   116.28000000    21.44000000
   H     64.33000000   114.87000000    22.23000000
   H     62.62000000   113.87000000    20.89000000
   H     63.48000000   114.47000000    19.38000000
   H     61.70000000   116.08000000    19.90000000
   H     63.20000000   116.76000000    20.53000000
   N     66.19000000   112.88000000    22.03000000
   C     66.81000000   111.59000000    22.25000000
   H     67.76000000   111.72800000    22.76600000
   H     66.15300000   110.97000000    22.86000000
   H     66.98500000   111.10200000    21.29100000
   H     66.62000000   113.67000000    22.50000000
  Ca     65.41000000   118.91100000    11.89000000
   O     63.69000000   120.92100000    12.29000000
   H     62.74000000   120.92100000    12.45000000
   H     63.93000000   121.85100000    12.31000000
   O     64.58000000   120.05100000     9.32000000
   H     65.30000000   120.56100000     9.69000000
   H     64.74000000   120.06100000     8.37000000
   O     67.98000000   118.86100000    12.70000000
   H     67.96000000   118.55100000    13.60000000
   H     68.86000000   119.20100000    12.58000000
   O     63.31000000   117.72100000    11.02000000
   H     63.09000000   117.35100000    11.88000000
   H     63.06000000   117.03100000    10.40000000
   O     66.55000000   116.44100000    12.20000000
   H     66.05000000   115.63100000    12.24000000
   H     67.18000000   116.37100000    12.91000000
   O     65.69000000   120.27100000    14.11000000
   H     65.17000000   121.04100000    14.33000000
   H     66.38000000   120.25100000    14.76000000
   O     67.02000000   118.08100000     9.96000000
   H     67.36000000   118.58100000     9.21000000
   H     67.38000000   117.20100000     9.83000000

Ca 1.00



