%chk=loop3.apoCaM-CA-Ng.Init295.run39.water3.chk
%nprocshared=20
%mem=10GB
%nosave
#b3lyp/svp scf=(tight,noincore,xqc) Test 
#IOP(5/87=12) Density=Current Pop=(MK,readradii) iop(6/33=2) iop(6/42=6)

loop3.apoCaM-CA-Ng.Init295.run39.water3 

   0  1 
   C    101.58000000    30.31000000    52.21000000
   C    101.36000000    29.17000000    53.20000000
   O    100.62000000    29.27000000    54.17000000
   H    102.60700000    30.28200000    51.84700000
   H    100.89500000    30.19900000    51.36900000
   H    101.39600000    31.26300000    52.70600000
   N    101.94000000    27.99000000    52.96000000
   C    101.96000000    26.85000000    53.85000000
   C    103.35000000    26.22000000    53.80000000
   O    103.92000000    26.29000000    52.72000000
   C    100.88000000    25.83000000    53.51000000
   C    100.92000000    24.49000000    54.24000000
   O     99.95000000    24.25000000    55.00000000
   O    101.76000000    23.59000000    54.08000000
   H    102.59000000    27.92000000    52.19000000
   H    101.81000000    27.15000000    54.89000000
   H    101.00000000    25.54000000    52.47000000
   H     99.93000000    26.33000000    53.65000000
   N    103.84000000    25.55000000    54.84000000
   C    105.21000000    25.07000000    54.89000000
   C    105.60000000    24.06000000    53.82000000
   O    106.70000000    23.96000000    53.29000000
   C    105.44000000    24.65000000    56.33000000
   C    105.60000000    25.86000000    57.25000000
   C    105.71000000    25.17000000    58.61000000
   C    105.82000000    26.21000000    59.72000000
   N    106.80000000    25.85000000    60.75000000
   H    103.19000000    25.36000000    55.59000000
   H    105.87000000    25.93000000    54.73000000
   H    106.30000000    23.99000000    56.21000000
   H    104.63000000    24.07000000    56.77000000
   H    104.71000000    26.49000000    57.21000000
   H    106.50000000    26.44000000    57.05000000
   H    106.62000000    24.57000000    58.57000000
   H    104.83000000    24.57000000    58.89000000
   H    104.85000000    26.34000000    60.20000000
   H    106.20000000    27.14000000    59.32000000
   H    106.59000000    24.89000000    60.98000000
   H    107.73000000    25.84000000    60.36000000
   H    106.81000000    26.46000000    61.55000000
   N    104.62000000    23.21000000    53.50000000
   C    104.76000000    22.20000000    52.47000000
   C    103.91000000    22.55000000    51.26000000
   O    103.88000000    21.84000000    50.26000000
   C    104.37000000    20.80000000    52.94000000
   C    103.10000000    20.86000000    53.77000000
   O    102.01000000    20.73000000    53.18000000
   O    103.18000000    20.93000000    55.02000000
   H    103.68000000    23.21000000    53.86000000
   H    105.79000000    22.12000000    52.11000000
   H    105.26000000    20.38000000    53.40000000
   H    104.29000000    20.09000000    52.11000000
   N    103.20000000    23.68000000    51.34000000
   C    102.50000000    24.23000000    50.19000000
   C    101.20000000    23.53000000    49.83000000
   O    100.70000000    23.88000000    48.76000000
   H    103.04000000    24.18000000    52.20000000
   H    103.22000000    24.18000000    49.38000000
   H    102.26000000    25.28000000    50.35000000
   N    100.66000000    22.62000000    50.64000000
   C     99.27000000    22.21000000    50.56000000
   C     98.63000000    22.50000000    51.91000000
   O     99.16000000    22.18000000    52.97000000
   C     99.31000000    20.75000000    50.11000000
   C    100.01000000    20.56000000    48.78000000
   N     99.23000000    20.26000000    47.74000000
   O    101.24000000    20.58000000    48.64000000
   H    101.10000000    22.44000000    51.53000000
   H     98.73000000    22.82000000    49.85000000
   H     98.26000000    20.50000000    49.94000000
   H     99.78000000    20.17000000    50.91000000
   H     98.27000000    20.04000000    47.92000000
   H     99.75000000    19.98000000    46.91000000
   N     97.41000000    23.03000000    51.88000000
   C     96.82000000    23.77000000    52.97000000
   C     96.36000000    23.15000000    54.29000000
   O     96.03000000    23.84000000    55.25000000
   H     96.92000000    22.90000000    51.01000000
   H     95.99000000    24.34000000    52.54000000
   H     97.42000000    24.62000000    53.31000000
   N     96.45000000    21.82000000    54.41000000
   C     96.04000000    20.91000000    55.46000000
   C     97.01000000    21.01000000    56.63000000
   O     98.23000000    21.02000000    56.55000000
   C     95.94000000    19.49000000    54.93000000
   C     95.37000000    18.37000000    55.77000000
   C     96.17000000    17.41000000    56.38000000
   C     93.99000000    18.38000000    56.01000000
   C     95.62000000    16.54000000    57.33000000
   C     93.42000000    17.57000000    57.00000000
   C     94.24000000    16.60000000    57.60000000
   O     93.64000000    15.65000000    58.37000000
   H     96.86000000    21.44000000    53.57000000
   H     95.01000000    21.12000000    55.73000000
   H     96.91000000    19.15000000    54.56000000
   H     95.38000000    19.49000000    53.99000000
   H     97.23000000    17.38000000    56.17000000
   H     93.29000000    19.10000000    55.61000000
   H     96.24000000    15.82000000    57.85000000
   H     92.36000000    17.65000000    57.20000000
   H     92.70000000    15.83000000    58.42000000
   N     96.39000000    21.03000000    57.81000000
   C     96.93000000    21.30000000    59.13000000
   C     97.92000000    20.32000000    59.74000000
   O     98.68000000    19.63000000    59.05000000
   C     97.27000000    22.77000000    59.35000000
   C     96.04000000    23.61000000    59.01000000
   C     98.50000000    23.29000000    58.60000000
   C     96.13000000    25.04000000    59.53000000
   H     95.38000000    21.08000000    57.71000000
   H     96.06000000    21.17000000    59.77000000
   H     97.50000000    22.91000000    60.41000000
   H     95.15000000    23.21000000    59.51000000
   H     95.88000000    23.63000000    57.94000000
   H     98.26000000    23.61000000    57.58000000
   H     98.90000000    24.11000000    59.18000000
   H     99.22000000    22.48000000    58.57000000
   H     97.11000000    25.50000000    59.36000000
   H     95.35000000    25.66000000    59.09000000
   H     95.86000000    24.98000000    60.58000000
   N     97.98000000    20.29000000    61.07000000
   C     98.92000000    19.46000000    61.80000000
   C     98.37000000    18.96000000    63.14000000
   O     98.67000000    17.83000000    63.52000000
   C    100.24000000    20.19000000    61.97000000
   O    100.07000000    21.35000000    62.76000000
   H     97.38000000    20.78000000    61.71000000
   H     99.17000000    18.58000000    61.20000000
   H    100.67000000    20.52000000    61.02000000
   H    100.95000000    19.51000000    62.46000000
   H    100.98000000    21.59000000    62.94000000
   N     97.49000000    19.71000000    63.79000000
   C     96.93000000    19.52000000    65.11000000
   C     97.90000000    18.95000000    66.15000000
   O     97.55000000    18.09000000    66.95000000
   C     95.57000000    18.83000000    65.04000000
   H     97.34000000    20.64000000    63.41000000
   H     96.72000000    20.53000000    65.46000000
   H     94.93000000    19.40000000    64.38000000
   H     95.73000000    17.81000000    64.69000000
   H     95.21000000    18.87000000    66.07000000
   N     99.10000000    19.47000000    66.42000000
   C     99.60000000    20.76000000    66.00000000
   C     99.35000000    21.94000000    66.93000000
   O     99.91000000    22.01000000    68.02000000
   C    101.11000000    20.55000000    65.87000000
   H     99.77000000    18.89000000    66.91000000
   H     99.22000000    21.09000000    65.03000000
   H    101.56000000    20.47000000    66.86000000
   H    101.27000000    19.67000000    65.25000000
   H    101.55000000    21.38000000    65.32000000
   N     98.64000000    23.04000000    66.67000000
   C     98.35000000    23.62000000    65.38000000
   C     96.92000000    24.15000000    65.27000000
   O     96.46000000    24.24000000    64.13000000
   C     99.32000000    24.79000000    65.22000000
   C    100.74000000    24.25000000    65.10000000
   C    101.69000000    25.36000000    64.66000000
   O    101.54000000    26.52000000    65.09000000
   O    102.55000000    24.97000000    63.83000000
   H     98.61000000    23.67000000    67.46000000
   H     98.42000000    22.84000000    64.62000000
   H     99.13000000    25.53000000    65.99000000
   H     99.11000000    25.32000000    64.29000000
   H    100.70000000    23.49000000    64.33000000
   H    101.14000000    23.79000000    66.00000000
   N     96.23000000    24.48000000    66.36000000
   C     94.81000000    24.76000000    66.41000000
   H     94.27400000    23.86100000    66.71500000
   H     94.62100000    25.55700000    67.12900000
   H     94.46500000    25.07100000    65.42400000
   H     96.76000000    24.61000000    67.20000000
  Ca    100.54200000    21.55000000    55.17000000
   O    100.84200000    20.17000000    57.30000000
   H    100.15200000    20.29000000    57.95000000
   H    101.30200000    19.37000000    57.59000000
   O     99.45000000    19.09000000    54.40000000
   H     99.83000000    18.68000000    53.63000000
   H     99.30000000    18.37000000    55.01000000
   O    101.44200000    23.03000000    57.11000000
   H    101.34200000    23.97000000    57.28000000
   H    101.71200000    22.67000000    57.95000000

Ca 1.00



