%chk=loop4.apoCaM-CA-Ng.Init31.run68.water4.chk
%nprocshared=20
%mem=10GB
%nosave
#b3lyp/svp scf=(tight,noincore,xqc) Test 
#IOP(5/87=12) Density=Current Pop=(MK,readradii) iop(6/33=2) iop(6/42=6)

loop4.apoCaM-CA-Ng.Init31.run68.water4 

   -3  1 
   C    104.79000000    44.65000000    36.25000000
   C    105.19000000    44.85000000    34.80000000
   O    104.42000000    44.89000000    33.84000000
   H    103.75700000    44.30500000    36.29700000
   H    105.44200000    43.90600000    36.70800000
   H    104.88200000    45.59400000    36.78700000
   N    106.45000000    45.23000000    34.57000000
   C    107.62000000    44.79000000    35.30000000
   C    107.94000000    45.44000000    36.64000000
   O    108.54000000    44.84000000    37.53000000
   C    108.85000000    44.93000000    34.41000000
   C    110.01000000    44.19000000    35.05000000
   O    110.99000000    44.90000000    35.39000000
   O    110.06000000    42.94000000    35.03000000
   H    106.55000000    45.71000000    33.69000000
   H    107.44000000    43.74000000    35.55000000
   H    109.14000000    45.98000000    34.34000000
   H    108.65000000    44.60000000    33.38000000
   N    107.69000000    46.74000000    36.76000000
   C    107.61000000    47.43000000    38.03000000
   C    109.00000000    47.75000000    38.57000000
   O    109.36000000    47.40000000    39.69000000
   C    106.70000000    48.65000000    37.88000000
   C    105.32000000    48.27000000    37.36000000
   C    106.62000000    49.57000000    39.09000000
   C    104.34000000    47.74000000    38.41000000
   H    107.11000000    47.12000000    36.03000000
   H    107.14000000    46.81000000    38.79000000
   H    107.19000000    49.28000000    37.14000000
   H    105.34000000    47.63000000    36.48000000
   H    104.85000000    49.18000000    36.99000000
   H    106.25000000    50.56000000    38.81000000
   H    105.99000000    49.14000000    39.86000000
   H    107.62000000    49.88000000    39.40000000
   H    103.56000000    47.17000000    37.91000000
   H    104.88000000    46.98000000    38.97000000
   H    103.94000000    48.56000000    39.00000000
   N    109.88000000    48.29000000    37.73000000
   C    111.24000000    48.67000000    38.08000000
   C    112.24000000    48.64000000    36.93000000
   O    112.97000000    49.61000000    36.74000000
   C    111.19000000    50.04000000    38.76000000
   C    112.37000000    50.19000000    39.71000000
   O    112.76000000    51.33000000    40.05000000
   O    112.90000000    49.22000000    40.29000000
   H    109.64000000    48.28000000    36.75000000
   H    111.67000000    47.95000000    38.78000000
   H    110.27000000    50.19000000    39.31000000
   H    111.29000000    50.84000000    38.02000000
   N    112.17000000    47.59000000    36.12000000
   C    113.06000000    47.22000000    35.03000000
   C    113.01000000    48.24000000    33.91000000
   O    112.09000000    48.09000000    33.11000000
   H    111.60000000    46.88000000    36.56000000
   H    112.90000000    46.20000000    34.68000000
   H    114.11000000    47.14000000    35.32000000
   N    114.04000000    49.09000000    33.79000000
   C    114.20000000    50.16000000    32.83000000
   C    115.29000000    51.13000000    33.28000000
   O    116.07000000    50.91000000    34.20000000
   C    114.64000000    49.58000000    31.49000000
   C    115.47000000    48.31000000    31.61000000
   O    116.59000000    48.39000000    32.17000000
   O    115.04000000    47.23000000    31.16000000
   H    114.69000000    49.15000000    34.55000000
   H    113.29000000    50.74000000    32.69000000
   H    115.33000000    50.26000000    30.98000000
   H    113.75000000    49.51000000    30.87000000
   N    115.24000000    52.36000000    32.78000000
   C    114.22000000    52.98000000    31.95000000
   C    114.76000000    54.21000000    31.24000000
   O    115.42000000    55.03000000    31.88000000
   H    116.02000000    52.92000000    33.08000000
   H    113.35000000    53.25000000    32.55000000
   H    113.96000000    52.17000000    31.28000000
   N    114.51000000    54.45000000    29.95000000
   C    113.68000000    53.79000000    28.97000000
   C    112.29000000    53.31000000    29.37000000
   O    111.80000000    53.50000000    30.48000000
   C    114.53000000    52.63000000    28.45000000
   C    115.96000000    52.92000000    27.99000000
   C    116.66000000    51.70000000    27.43000000
   N    117.28000000    51.80000000    26.25000000
   O    116.56000000    50.61000000    27.99000000
   H    115.14000000    55.18000000    29.64000000
   H    113.54000000    54.48000000    28.14000000
   H    114.06000000    52.29000000    27.53000000
   H    114.64000000    51.93000000    29.28000000
   H    116.59000000    53.11000000    28.85000000
   H    115.94000000    53.68000000    27.20000000
   H    117.14000000    52.64000000    25.71000000
   H    117.65000000    50.94000000    25.88000000
   N    111.65000000    52.77000000    28.33000000
   C    110.34000000    52.16000000    28.30000000
   C    109.76000000    52.35000000    26.91000000
   O    110.49000000    52.48000000    25.93000000
   C    110.33000000    50.67000000    28.66000000
   C    110.59000000    50.39000000    30.14000000
   C    111.47000000    49.92000000    27.99000000
   H    112.03000000    52.89000000    27.40000000
   H    109.69000000    52.77000000    28.93000000
   H    109.38000000    50.28000000    28.29000000
   H    111.51000000    50.93000000    30.39000000
   H    109.82000000    50.87000000    30.74000000
   H    110.59000000    49.32000000    30.35000000
   H    111.45000000    48.91000000    28.39000000
   H    111.33000000    49.88000000    26.91000000
   H    112.45000000    50.32000000    28.25000000
   N    108.44000000    52.27000000    26.71000000
   C    107.70000000    52.29000000    25.46000000
   C    107.55000000    50.92000000    24.83000000
   O    106.96000000    50.83000000    23.76000000
   C    106.40000000    53.03000000    25.81000000
   C    105.65000000    53.59000000    24.61000000
   N    104.35000000    53.33000000    24.48000000
   O    106.19000000    54.28000000    23.75000000
   H    107.85000000    52.06000000    27.50000000
   H    108.24000000    52.94000000    24.77000000
   H    106.62000000    53.92000000    26.40000000
   H    105.80000000    52.41000000    26.47000000
   H    103.87000000    52.82000000    25.21000000
   H    103.87000000    53.61000000    23.64000000
   N    108.21000000    49.87000000    25.34000000
   C    108.25000000    48.49000000    24.90000000
   C    108.37000000    47.42000000    25.98000000
   O    108.73000000    47.77000000    27.10000000
   C    109.29000000    48.28000000    23.81000000
   C    110.71000000    48.54000000    24.24000000
   C    111.46000000    47.66000000    25.03000000
   C    111.27000000    49.78000000    23.89000000
   C    112.78000000    47.96000000    25.36000000
   C    112.59000000    50.12000000    24.22000000
   C    113.36000000    49.17000000    24.93000000
   O    114.62000000    49.49000000    25.35000000
   H    108.79000000    50.09000000    26.14000000
   H    107.27000000    48.35000000    24.46000000
   H    109.00000000    48.93000000    22.98000000
   H    109.19000000    47.25000000    23.45000000
   H    111.06000000    46.69000000    25.28000000
   H    110.58000000    50.44000000    23.38000000
   H    113.35000000    47.23000000    25.92000000
   H    112.99000000    51.06000000    23.89000000
   H    114.90000000    48.89000000    26.05000000
   N    108.25000000    46.11000000    25.77000000
   C    108.33000000    45.12000000    26.83000000
   C    106.98000000    44.71000000    27.39000000
   O    105.98000000    44.53000000    26.70000000
   C    109.08000000    43.92000000    26.25000000
   C    109.54000000    42.90000000    27.29000000
   C    109.98000000    41.56000000    26.73000000
   O    110.93000000    41.02000000    27.33000000
   O    109.44000000    41.11000000    25.69000000
   H    108.00000000    45.82000000    24.83000000
   H    108.94000000    45.37000000    27.70000000
   H    110.00000000    44.27000000    25.79000000
   H    108.41000000    43.43000000    25.55000000
   H    108.68000000    42.73000000    27.94000000
   H    110.33000000    43.37000000    27.88000000
   N    106.87000000    44.69000000    28.72000000
   C    105.68000000    44.48000000    29.52000000
   C    104.94000000    45.79000000    29.73000000
   O    104.28000000    46.04000000    30.73000000
   C    105.99000000    43.76000000    30.84000000
   C    106.55000000    42.35000000    30.68000000
   C    107.37000000    41.98000000    31.91000000
   O    106.81000000    41.43000000    32.88000000
   O    108.59000000    42.24000000    31.90000000
   H    107.71000000    44.84000000    29.26000000
   H    104.94000000    43.79000000    29.10000000
   H    105.05000000    43.67000000    31.39000000
   H    106.67000000    44.46000000    31.32000000
   H    107.11000000    42.23000000    29.76000000
   H    105.68000000    41.70000000    30.62000000
   N    104.97000000    46.66000000    28.72000000
   C    104.25000000    47.91000000    28.59000000
   H    103.30300000    47.84000000    29.12500000
   H    104.84600000    48.71900000    29.01200000
   H    104.05800000    48.11100000    27.53600000
   H    105.57000000    46.39000000    27.96000000
  Ca    108.83900000    40.83000000    34.29000000
   O    110.64900000    38.66000000    35.17000000
   H    110.80900000    38.01000000    34.49000000
   H    110.68900000    38.18000000    35.99000000
   O    109.62900000    41.15000000    36.96000000
   H    110.56900000    41.33000000    36.96000000
   H    109.35900000    41.27000000    37.88000000
   O    111.11900000    40.51000000    32.71000000
   H    111.12900000    40.70000000    31.77000000
   H    111.95900000    40.85000000    33.02000000
   O    108.04900000    38.44000000    33.24000000
   H    107.58900000    38.35000000    32.41000000
   H    107.79900000    37.66000000    33.74000000

Ca 1.00



