%chk=loop3.holoCaM-CaMKII.run88.water3.chk
%nprocshared=20
%mem=10GB
%nosave
#b3lyp/svp scf=(tight,noincore,xqc) Test 
#IOP(5/87=12) Density=Current Pop=(MK,readradii) iop(6/33=2) iop(6/42=6)

loop3.holoCaM-CaMKII.run88.water3 

   0  1 
   C     38.33000000    21.50000000     0.90000000
   C     37.18000000    20.75000000     1.57000000
   O     37.11000000    19.53000000     1.53000000
   H     39.21200000    20.86000000     0.87000000
   H     38.04400000    21.77200000    -0.11600000
   H     38.55600000    22.40200000     1.46800000
   N     36.27000000    21.47000000     2.23000000
   C     35.24000000    20.89000000     3.06000000
   C     34.10000000    20.47000000     2.14000000
   O     33.45000000    21.29000000     1.49000000
   C     34.81000000    21.90000000     4.11000000
   C     33.76000000    21.38000000     5.08000000
   O     33.27000000    22.31000000     5.76000000
   O     33.29000000    20.22000000     5.09000000
   H     36.48000000    22.46000000     2.34000000
   H     35.74000000    20.01000000     3.48000000
   H     34.50000000    22.84000000     3.64000000
   H     35.67000000    22.05000000     4.76000000
   N     33.82000000    19.17000000     1.99000000
   C     32.90000000    18.67000000     0.99000000
   C     31.43000000    18.96000000     1.29000000
   O     30.66000000    19.40000000     0.44000000
   C     33.13000000    17.16000000     0.95000000
   C     32.42000000    16.47000000    -0.21000000
   C     32.70000000    16.79000000    -1.67000000
   C     31.89000000    15.88000000    -2.59000000
   N     31.95000000    16.37000000    -3.98000000
   H     34.29000000    18.46000000     2.54000000
   H     33.10000000    19.07000000     0.00000000
   H     32.90000000    16.57000000     1.83000000
   H     34.19000000    16.93000000     0.83000000
   H     31.36000000    16.67000000    -0.02000000
   H     32.64000000    15.41000000    -0.07000000
   H     33.77000000    16.75000000    -1.88000000
   H     32.42000000    17.83000000    -1.85000000
   H     30.88000000    15.95000000    -2.19000000
   H     32.28000000    14.86000000    -2.57000000
   H     31.60000000    17.31000000    -4.10000000
   H     32.90000000    16.40000000    -4.32000000
   H     31.48000000    15.71000000    -4.58000000
   N     31.00000000    18.75000000     2.54000000
   C     29.62000000    18.86000000     2.96000000
   C     29.29000000    20.13000000     3.73000000
   O     28.13000000    20.27000000     4.13000000
   C     29.31000000    17.58000000     3.74000000
   C     30.21000000    17.41000000     4.96000000
   O     30.07000000    16.36000000     5.62000000
   O     31.16000000    18.16000000     5.25000000
   H     31.63000000    18.49000000     3.29000000
   H     28.98000000    18.97000000     2.09000000
   H     29.50000000    16.80000000     3.01000000
   H     28.25000000    17.54000000     3.98000000
   N     30.24000000    21.04000000     3.94000000
   C     30.06000000    22.39000000     4.44000000
   C     29.61000000    22.42000000     5.89000000
   O     28.65000000    23.07000000     6.30000000
   H     31.16000000    20.81000000     3.59000000
   H     29.25000000    22.81000000     3.84000000
   H     31.04000000    22.86000000     4.38000000
   N     30.55000000    21.94000000     6.71000000
   C     30.46000000    21.75000000     8.15000000
   C     31.58000000    22.28000000     9.03000000
   O     31.44000000    22.04000000    10.22000000
   C     30.21000000    20.26000000     8.37000000
   C     31.43000000    19.46000000     8.81000000
   N     31.38000000    18.77000000     9.95000000
   O     32.47000000    19.49000000     8.16000000
   H     31.35000000    21.57000000     6.24000000
   H     29.65000000    22.36000000     8.52000000
   H     29.81000000    19.73000000     7.50000000
   H     29.51000000    20.21000000     9.21000000
   H     30.48000000    18.71000000    10.41000000
   H     32.10000000    18.08000000    10.13000000
   N     32.54000000    23.01000000     8.45000000
   C     33.60000000    23.65000000     9.20000000
   C     34.80000000    22.79000000     9.58000000
   O     35.72000000    23.22000000    10.27000000
   H     32.64000000    23.03000000     7.44000000
   H     33.16000000    23.94000000    10.15000000
   H     33.95000000    24.53000000     8.66000000
   N     34.90000000    21.58000000     9.02000000
   C     35.87000000    20.54000000     9.34000000
   C     36.39000000    19.70000000     8.18000000
   O     35.57000000    19.17000000     7.43000000
   C     35.29000000    19.61000000    10.40000000
   C     35.12000000    20.22000000    11.77000000
   C     36.18000000    20.21000000    12.69000000
   C     33.90000000    20.74000000    12.21000000
   C     35.97000000    20.63000000    14.01000000
   C     33.70000000    21.25000000    13.50000000
   C     34.77000000    21.25000000    14.41000000
   O     34.65000000    21.85000000    15.63000000
   H     34.06000000    21.40000000     8.49000000
   H     36.75000000    21.03000000     9.75000000
   H     35.94000000    18.73000000    10.48000000
   H     34.35000000    19.20000000    10.03000000
   H     37.13000000    19.85000000    12.32000000
   H     33.03000000    20.49000000    11.62000000
   H     36.81000000    20.77000000    14.67000000
   H     32.75000000    21.62000000    13.85000000
   H     35.37000000    21.46000000    16.13000000
   N     37.71000000    19.58000000     8.03000000
   C     38.41000000    18.85000000     7.00000000
   C     38.94000000    17.55000000     7.60000000
   O     39.61000000    17.53000000     8.63000000
   C     39.55000000    19.73000000     6.47000000
   C     39.06000000    20.95000000     5.70000000
   C     40.40000000    18.85000000     5.56000000
   C     40.21000000    21.89000000     5.37000000
   H     38.24000000    20.06000000     8.73000000
   H     37.68000000    18.54000000     6.25000000
   H     40.11000000    20.10000000     7.33000000
   H     38.39000000    21.49000000     6.36000000
   H     38.40000000    20.68000000     4.88000000
   H     40.82000000    17.94000000     5.98000000
   H     39.65000000    18.59000000     4.82000000
   H     41.14000000    19.43000000     5.00000000
   H     39.85000000    22.78000000     4.85000000
   H     40.49000000    22.28000000     6.35000000
   H     40.98000000    21.39000000     4.78000000
   N     38.61000000    16.46000000     6.90000000
   C     39.10000000    15.11000000     7.13000000
   C     40.13000000    14.59000000     6.14000000
   O     40.43000000    15.23000000     5.13000000
   C     37.94000000    14.12000000     7.06000000
   O     37.31000000    14.16000000     5.80000000
   H     37.88000000    16.52000000     6.20000000
   H     39.68000000    15.11000000     8.05000000
   H     37.17000000    14.31000000     7.80000000
   H     38.38000000    13.13000000     7.22000000
   H     36.88000000    15.01000000     5.66000000
   N     40.71000000    13.40000000     6.32000000
   C     41.68000000    12.67000000     5.53000000
   C     41.25000000    12.46000000     4.08000000
   O     42.00000000    12.87000000     3.20000000
   C     41.70000000    11.26000000     6.12000000
   H     40.43000000    12.80000000     7.08000000
   H     42.65000000    13.16000000     5.61000000
   H     40.69000000    10.87000000     5.98000000
   H     42.42000000    10.60000000     5.64000000
   H     42.00000000    11.23000000     7.16000000
   N     40.04000000    11.96000000     3.85000000
   C     39.57000000    11.84000000     2.48000000
   C     39.08000000    13.09000000     1.78000000
   O     39.15000000    13.09000000     0.55000000
   C     38.48000000    10.77000000     2.54000000
   H     39.43000000    11.64000000     4.59000000
   H     40.30000000    11.44000000     1.77000000
   H     37.63000000    11.18000000     3.10000000
   H     38.16000000    10.50000000     1.54000000
   H     38.75000000     9.90000000     3.14000000
   N     38.67000000    14.14000000     2.51000000
   C     38.64000000    15.50000000     2.03000000
   C     40.02000000    16.05000000     1.72000000
   O     40.17000000    16.76000000     0.73000000
   C     37.91000000    16.42000000     3.01000000
   C     36.42000000    16.10000000     3.04000000
   C     35.77000000    16.83000000     4.20000000
   O     36.15000000    16.57000000     5.37000000
   O     34.71000000    17.45000000     3.99000000
   H     38.77000000    14.04000000     3.51000000
   H     38.05000000    15.52000000     1.11000000
   H     38.04000000    17.39000000     2.54000000
   H     38.38000000    16.38000000     4.00000000
   H     36.31000000    15.01000000     3.09000000
   H     35.97000000    16.35000000     2.08000000
   N     41.10000000    15.89000000     2.49000000
   C     42.45000000    16.28000000     2.14000000
   H     43.12900000    15.44900000     2.33100000
   H     42.49000000    16.54500000     1.08300000
   H     42.74800000    17.13800000     2.74200000
   H     40.98000000    15.37000000     3.35000000
  Ca     33.45000000    17.93000000     6.27000000
   O     32.88000000    15.67000000     4.87000000
   H     32.10000000    15.14000000     4.73000000
   H     33.61000000    15.06000000     4.81000000
   O     31.83000000    16.07000000     7.54000000
   H     31.19000000    16.13000000     6.83000000
   H     31.52000000    15.34000000     8.08000000
   O     34.77000000    16.20000000     7.73000000
   H     34.65000000    15.28000000     8.00000000
   H     35.39000000    16.16000000     7.01000000

Ca 1.00



