%chk=loop4.apoCaM-CA-Ng.Init295.run54.water3.chk
%nprocshared=20
%mem=10GB
%nosave
#b3lyp/svp scf=(tight,noincore,xqc) Test 
#IOP(5/87=12) Density=Current Pop=(MK,readradii) iop(6/33=2) iop(6/42=6)

loop4.apoCaM-CA-Ng.Init295.run54.water3 

   -3  1 
   C     68.40000000    41.64000000    40.85000000
   C     68.76000000    40.25000000    41.35000000
   O     69.90000000    40.00000000    41.74000000
   H     67.49000000    41.97900000    41.34500000
   H     69.21400000    42.33000000    41.07500000
   H     68.23700000    41.60800000    39.77300000
   N     67.78000000    39.35000000    41.35000000
   C     68.01000000    37.93000000    41.58000000
   C     68.46000000    37.64000000    43.00000000
   O     68.97000000    36.54000000    43.21000000
   C     68.75000000    37.23000000    40.45000000
   C     68.58000000    37.90000000    39.09000000
   O     69.60000000    38.28000000    38.48000000
   O     67.47000000    38.10000000    38.55000000
   H     66.85000000    39.65000000    41.08000000
   H     67.03000000    37.46000000    41.62000000
   H     68.54000000    36.16000000    40.40000000
   H     69.80000000    37.19000000    40.75000000
   N     68.20000000    38.57000000    43.92000000
   C     68.47000000    38.51000000    45.34000000
   C     67.56000000    37.45000000    45.96000000
   O     66.34000000    37.56000000    45.96000000
   C     68.22000000    39.83000000    46.06000000
   C     68.85000000    40.99000000    45.30000000
   C     68.84000000    39.81000000    47.46000000
   C     68.75000000    42.40000000    45.88000000
   H     67.72000000    39.37000000    43.55000000
   H     69.53000000    38.29000000    45.49000000
   H     67.16000000    40.05000000    46.14000000
   H     68.34000000    41.14000000    44.35000000
   H     69.92000000    40.80000000    45.22000000
   H     68.28000000    39.14000000    48.11000000
   H     69.84000000    39.38000000    47.43000000
   H     68.88000000    40.81000000    47.90000000
   H     69.01000000    43.08000000    45.07000000
   H     67.71000000    42.61000000    46.13000000
   H     69.43000000    42.71000000    46.67000000
   N     68.08000000    36.42000000    46.63000000
   C     69.46000000    36.10000000    46.95000000
   C     70.13000000    35.20000000    45.93000000
   O     71.28000000    35.47000000    45.56000000
   C     69.58000000    35.60000000    48.39000000
   C     69.36000000    36.64000000    49.48000000
   O     68.17000000    36.89000000    49.79000000
   O     70.28000000    37.35000000    49.93000000
   H     67.40000000    35.79000000    47.02000000
   H     70.10000000    36.98000000    46.92000000
   H     70.52000000    35.08000000    48.58000000
   H     68.83000000    34.84000000    48.58000000
   N     69.38000000    34.21000000    45.45000000
   C     69.96000000    33.18000000    44.61000000
   C     71.28000000    32.65000000    45.16000000
   O     71.49000000    32.39000000    46.34000000
   H     68.51000000    33.98000000    45.91000000
   H     70.04000000    33.72000000    43.67000000
   H     69.28000000    32.34000000    44.50000000
   N     72.27000000    32.63000000    44.26000000
   C     73.58000000    32.08000000    44.53000000
   C     74.66000000    33.14000000    44.36000000
   O     75.85000000    32.86000000    44.41000000
   C     73.88000000    30.86000000    43.66000000
   C     73.47000000    31.03000000    42.20000000
   O     73.34000000    32.11000000    41.59000000
   O     73.21000000    29.92000000    41.70000000
   H     71.98000000    32.96000000    43.34000000
   H     73.59000000    31.63000000    45.52000000
   H     73.28000000    30.07000000    44.09000000
   H     74.91000000    30.51000000    43.65000000
   N     74.34000000    34.41000000    44.12000000
   C     75.27000000    35.49000000    43.87000000
   C     76.12000000    35.39000000    42.61000000
   O     77.13000000    36.07000000    42.48000000
   H     73.34000000    34.54000000    43.99000000
   H     75.86000000    35.59000000    44.78000000
   H     74.86000000    36.49000000    43.76000000
   N     75.54000000    34.77000000    41.57000000
   C     76.31000000    34.29000000    40.44000000
   C     76.78000000    35.46000000    39.59000000
   O     77.86000000    35.39000000    38.99000000
   C     77.40000000    33.38000000    41.01000000
   C     77.82000000    32.23000000    40.09000000
   C     78.86000000    31.31000000    40.71000000
   N     78.50000000    30.03000000    40.89000000
   O     79.97000000    31.75000000    40.96000000
   H     74.74000000    34.18000000    41.75000000
   H     75.77000000    33.62000000    39.78000000
   H     77.06000000    32.91000000    41.94000000
   H     78.24000000    34.00000000    41.31000000
   H     78.12000000    32.70000000    39.15000000
   H     76.99000000    31.57000000    39.85000000
   H     77.57000000    29.72000000    40.65000000
   H     79.21000000    29.49000000    41.35000000
   N     76.09000000    36.60000000    39.58000000
   C     76.55000000    37.85000000    39.01000000
   C     76.45000000    37.87000000    37.49000000
   O     75.47000000    37.39000000    36.91000000
   C     75.72000000    38.96000000    39.65000000
   C     76.29000000    39.15000000    41.05000000
   C     75.63000000    40.25000000    38.84000000
   H     75.20000000    36.62000000    40.04000000
   H     77.62000000    38.01000000    39.15000000
   H     74.71000000    38.55000000    39.75000000
   H     76.21000000    38.21000000    41.60000000
   H     77.22000000    39.71000000    41.14000000
   H     75.64000000    39.83000000    41.60000000
   H     76.68000000    40.54000000    38.76000000
   H     75.27000000    40.14000000    37.82000000
   H     75.02000000    41.04000000    39.29000000
   N     77.32000000    38.63000000    36.82000000
   C     77.02000000    39.06000000    35.47000000
   C     77.30000000    40.55000000    35.30000000
   O     78.07000000    41.15000000    36.04000000
   C     77.83000000    38.27000000    34.45000000
   C     77.57000000    38.71000000    33.01000000
   N     76.35000000    38.40000000    32.56000000
   O     78.33000000    39.39000000    32.33000000
   H     78.07000000    39.02000000    37.36000000
   H     75.97000000    38.93000000    35.21000000
   H     77.66000000    37.22000000    34.69000000
   H     78.91000000    38.33000000    34.57000000
   H     75.78000000    37.78000000    33.12000000
   H     76.15000000    38.62000000    31.60000000
   N     76.73000000    41.05000000    34.20000000
   C     76.52000000    42.46000000    33.92000000
   C     75.34000000    42.50000000    32.97000000
   O     75.36000000    43.14000000    31.92000000
   C     77.87000000    42.96000000    33.41000000
   C     78.18000000    44.33000000    33.96000000
   C     79.15000000    44.51000000    34.95000000
   C     77.56000000    45.45000000    33.38000000
   C     79.60000000    45.80000000    35.25000000
   C     77.78000000    46.73000000    33.89000000
   C     78.85000000    46.90000000    34.79000000
   O     79.14000000    48.16000000    35.24000000
   H     76.30000000    40.43000000    33.52000000
   H     76.16000000    42.81000000    34.88000000
   H     77.77000000    43.09000000    32.33000000
   H     78.64000000    42.25000000    33.72000000
   H     79.74000000    43.68000000    35.30000000
   H     76.82000000    45.34000000    32.60000000
   H     80.44000000    45.90000000    35.91000000
   H     77.33000000    47.65000000    33.56000000
   H     78.59000000    48.76000000    34.72000000
   N     74.23000000    41.83000000    33.30000000
   C     73.15000000    41.57000000    32.37000000
   C     72.27000000    42.79000000    32.10000000
   O     71.79000000    43.02000000    31.00000000
   C     72.39000000    40.30000000    32.73000000
   C     71.09000000    40.03000000    31.97000000
   C     70.93000000    38.52000000    31.91000000
   O     70.41000000    37.84000000    32.82000000
   O     71.43000000    37.90000000    30.95000000
   H     74.25000000    41.35000000    34.19000000
   H     73.61000000    41.29000000    31.43000000
   H     72.17000000    40.22000000    33.79000000
   H     73.10000000    39.55000000    32.40000000
   H     71.18000000    40.38000000    30.94000000
   H     70.16000000    40.49000000    32.31000000
   N     72.04000000    43.66000000    33.09000000
   C     72.02000000    43.45000000    34.52000000
   C     73.11000000    44.26000000    35.21000000
   O     73.70000000    45.11000000    34.54000000
   C     70.68000000    43.91000000    35.10000000
   C     69.50000000    43.17000000    34.48000000
   C     69.46000000    41.75000000    35.03000000
   O     68.86000000    40.85000000    34.41000000
   O     69.69000000    41.57000000    36.25000000
   H     71.46000000    44.39000000    32.72000000
   H     72.12000000    42.39000000    34.73000000
   H     70.59000000    44.96000000    34.84000000
   H     70.72000000    43.91000000    36.19000000
   H     69.60000000    43.27000000    33.40000000
   H     68.61000000    43.73000000    34.77000000
   N     73.26000000    44.10000000    36.53000000
   C     74.24000000    44.76000000    37.36000000
   H     75.10700000    45.02600000    36.75600000
   H     73.80500000    45.66300000    37.78800000
   H     74.54900000    44.08900000    38.16200000
   H     72.62000000    43.46000000    36.98000000
  Ca     68.37000000    39.18000000    36.40000000
   O     67.89000000    37.96000000    33.75000000
   H     67.61000000    37.23000000    33.20000000
   H     68.79000000    38.15000000    33.46000000
   O     67.96000000    36.54000000    36.38000000
   H     68.14000000    36.04000000    37.17000000
   H     67.76000000    35.88000000    35.72000000
   O     70.41000000    38.01000000    35.41000000
   H     70.32000000    37.65000000    34.53000000
   H     71.31000000    37.80000000    35.66000000

Ca 1.00



