%chk=loop3.apoCaM-CA-Ng.Init295.run58.water3.chk
%nprocshared=20
%mem=10GB
%nosave
#b3lyp/svp scf=(tight,noincore,xqc) Test 
#IOP(5/87=12) Density=Current Pop=(MK,readradii) iop(6/33=2) iop(6/42=6)

loop3.apoCaM-CA-Ng.Init295.run58.water3 

   0  1 
   C     85.65000000    56.39000000    26.41000000
   C     85.85000000    54.91000000    26.71000000
   O     84.88000000    54.33000000    27.20000000
   H     84.76300000    56.74900000    26.93200000
   H     86.52200000    56.95100000    26.74700000
   H     85.52100000    56.53000000    25.33700000
   N     86.99000000    54.27000000    26.45000000
   C     87.20000000    52.84000000    26.49000000
   C     88.32000000    52.40000000    27.43000000
   O     89.22000000    53.18000000    27.70000000
   C     87.42000000    52.38000000    25.05000000
   C     87.41000000    50.87000000    24.94000000
   O     86.43000000    50.23000000    24.51000000
   O     88.40000000    50.22000000    25.35000000
   H     87.73000000    54.83000000    26.05000000
   H     86.30000000    52.38000000    26.89000000
   H     88.40000000    52.77000000    24.77000000
   H     86.69000000    52.83000000    24.37000000
   N     88.28000000    51.17000000    27.96000000
   C     89.27000000    50.77000000    28.93000000
   C     90.70000000    50.61000000    28.45000000
   O     91.60000000    50.56000000    29.29000000
   C     88.73000000    49.53000000    29.64000000
   C     88.61000000    48.21000000    28.87000000
   C     88.34000000    47.07000000    29.85000000
   C     89.49000000    46.72000000    30.79000000
   N     89.31000000    45.49000000    31.57000000
   H     87.55000000    50.54000000    27.64000000
   H     89.32000000    51.50000000    29.74000000
   H     87.79000000    49.87000000    30.07000000
   H     89.52000000    49.40000000    30.37000000
   H     89.58000000    48.02000000    28.41000000
   H     87.81000000    48.21000000    28.14000000
   H     87.99000000    46.22000000    29.27000000
   H     87.52000000    47.35000000    30.52000000
   H     89.55000000    47.55000000    31.49000000
   H     90.38000000    46.74000000    30.16000000
   H     88.67000000    45.60000000    32.34000000
   H     88.92000000    44.80000000    30.94000000
   H     90.23000000    45.18000000    31.84000000
   N     90.86000000    50.29000000    27.16000000
   C     92.13000000    50.29000000    26.45000000
   C     92.14000000    51.47000000    25.48000000
   O     93.07000000    51.57000000    24.69000000
   C     92.23000000    49.03000000    25.61000000
   C     91.06000000    48.66000000    24.70000000
   O     90.64000000    49.44000000    23.82000000
   O     90.52000000    47.55000000    24.88000000
   H     90.04000000    50.32000000    26.58000000
   H     92.91000000    50.40000000    27.21000000
   H     92.32000000    48.16000000    26.25000000
   H     93.17000000    48.98000000    25.05000000
   N     91.30000000    52.49000000    25.62000000
   C     91.24000000    53.62000000    24.71000000
   C     90.70000000    53.41000000    23.30000000
   O     90.54000000    54.43000000    22.63000000
   H     90.85000000    52.72000000    26.50000000
   H     92.26000000    53.97000000    24.56000000
   H     90.63000000    54.35000000    25.26000000
   N     90.41000000    52.19000000    22.84000000
   C     89.94000000    51.89000000    21.50000000
   C     88.59000000    51.20000000    21.43000000
   O     88.31000000    50.35000000    22.29000000
   C     91.06000000    51.06000000    20.88000000
   C     90.77000000    50.51000000    19.49000000
   N     91.24000000    51.26000000    18.48000000
   O     90.16000000    49.45000000    19.39000000
   H     90.69000000    51.45000000    23.45000000
   H     89.74000000    52.81000000    20.95000000
   H     91.49000000    50.30000000    21.53000000
   H     91.92000000    51.72000000    20.78000000
   H     91.59000000    52.19000000    18.66000000
   H     90.84000000    51.09000000    17.57000000
   N     87.72000000    51.57000000    20.49000000
   C     86.30000000    51.46000000    20.72000000
   C     85.65000000    50.09000000    20.53000000
   O     84.51000000    49.85000000    20.91000000
   H     88.04000000    52.32000000    19.89000000
   H     85.70000000    52.10000000    20.07000000
   H     86.11000000    51.69000000    21.77000000
   N     86.40000000    49.11000000    20.02000000
   C     85.98000000    47.75000000    19.75000000
   C     85.80000000    47.00000000    21.06000000
   O     86.43000000    47.32000000    22.07000000
   C     86.84000000    47.07000000    18.69000000
   C     86.80000000    47.65000000    17.30000000
   C     87.87000000    48.40000000    16.80000000
   C     85.67000000    47.31000000    16.53000000
   C     87.79000000    48.94000000    15.52000000
   C     85.59000000    47.90000000    15.27000000
   C     86.62000000    48.71000000    14.75000000
   O     86.50000000    49.33000000    13.54000000
   H     87.39000000    49.23000000    19.91000000
   H     84.99000000    47.86000000    19.30000000
   H     86.66000000    46.01000000    18.51000000
   H     87.86000000    47.08000000    19.08000000
   H     88.84000000    48.46000000    17.28000000
   H     84.82000000    46.74000000    16.86000000
   H     88.64000000    49.48000000    15.13000000
   H     84.70000000    47.81000000    14.67000000
   H     85.92000000    48.86000000    12.93000000
   N     84.96000000    45.96000000    21.02000000
   C     84.64000000    45.08000000    22.12000000
   C     85.73000000    44.10000000    22.54000000
   O     86.89000000    44.49000000    22.68000000
   C     83.96000000    45.79000000    23.29000000
   C     83.32000000    44.87000000    24.32000000
   C     82.94000000    46.72000000    22.66000000
   C     82.72000000    45.56000000    25.54000000
   H     84.56000000    45.82000000    20.10000000
   H     83.80000000    44.48000000    21.77000000
   H     84.67000000    46.46000000    23.78000000
   H     84.07000000    44.12000000    24.59000000
   H     82.59000000    44.21000000    23.86000000
   H     82.15000000    46.94000000    23.38000000
   H     83.30000000    47.69000000    22.31000000
   H     82.49000000    46.16000000    21.84000000
   H     81.74000000    45.99000000    25.34000000
   H     82.66000000    44.93000000    26.43000000
   H     83.42000000    46.36000000    25.78000000
   N     85.39000000    42.81000000    22.67000000
   C     86.30000000    41.71000000    22.89000000
   C     85.84000000    40.30000000    22.53000000
   O     86.59000000    39.33000000    22.60000000
   C     86.83000000    41.74000000    24.32000000
   O     85.65000000    41.55000000    25.08000000
   H     84.46000000    42.51000000    22.43000000
   H     87.17000000    41.88000000    22.25000000
   H     87.25000000    42.73000000    24.48000000
   H     87.64000000    41.01000000    24.43000000
   H     85.83000000    41.51000000    26.02000000
   N     84.57000000    40.11000000    22.17000000
   C     84.01000000    38.89000000    21.62000000
   C     84.32000000    37.64000000    22.44000000
   O     85.07000000    36.76000000    22.02000000
   C     84.33000000    38.81000000    20.13000000
   H     83.94000000    40.89000000    22.04000000
   H     82.93000000    39.02000000    21.69000000
   H     83.69000000    39.52000000    19.60000000
   H     85.38000000    39.04000000    19.98000000
   H     84.17000000    37.79000000    19.78000000
   N     83.74000000    37.48000000    23.63000000
   C     83.19000000    38.55000000    24.43000000
   C     81.85000000    38.26000000    25.10000000
   O     81.50000000    37.09000000    25.21000000
   C     84.27000000    38.75000000    25.49000000
   H     83.76000000    36.56000000    24.05000000
   H     83.02000000    39.50000000    23.92000000
   H     84.17000000    37.96000000    26.23000000
   H     85.26000000    38.73000000    25.04000000
   H     84.14000000    39.65000000    26.09000000
   N     81.13000000    39.21000000    25.70000000
   C     81.52000000    40.60000000    25.89000000
   C     80.50000000    41.58000000    25.33000000
   O     80.72000000    42.49000000    24.53000000
   C     81.88000000    40.83000000    27.36000000
   C     82.49000000    42.17000000    27.74000000
   C     82.96000000    42.15000000    29.18000000
   O     82.13000000    42.51000000    30.04000000
   O     84.14000000    41.79000000    29.39000000
   H     80.28000000    38.96000000    26.18000000
   H     82.38000000    40.86000000    25.28000000
   H     82.57000000    40.08000000    27.75000000
   H     81.00000000    40.68000000    27.99000000
   H     81.77000000    42.96000000    27.49000000
   H     83.35000000    42.29000000    27.09000000
   N     79.23000000    41.25000000    25.58000000
   C     78.04000000    41.65000000    24.87000000
   H     77.26800000    41.93200000    25.58600000
   H     78.26800000    42.50100000    24.22800000
   H     77.68300000    40.82000000    24.26100000
   H     79.19000000    40.54000000    26.30000000
  Ca     88.24000000    48.14000000    23.80000000
   O     89.53000000    47.57000000    21.45000000
   H     89.57000000    46.64000000    21.23000000
   H     89.75000000    48.02000000    20.63000000
   O     86.58000000    47.30000000    25.66000000
   H     86.58000000    46.51000000    26.19000000
   H     85.93000000    47.87000000    26.09000000
   O     88.54000000    45.56000000    24.34000000
   H     88.11000000    45.01000000    23.70000000
   H     88.73000000    44.98000000    25.08000000

Ca 1.00



