%chk=loop4.apoCaM-CA-Ng.Init31.run72.water4.chk
%nprocshared=20
%mem=10GB
%nosave
#b3lyp/svp scf=(tight,noincore,xqc) Test 
#IOP(5/87=12) Density=Current Pop=(MK,readradii) iop(6/33=2) iop(6/42=6)

loop4.apoCaM-CA-Ng.Init31.run72.water4 

   -3  1 
   C    103.04000000    36.14000000    30.16000000
   C    103.72000000    37.43000000    29.75000000
   O    102.99000000    38.34000000    29.35000000
   H    102.06500000    36.07400000    29.67600000
   H    103.65400000    35.29200000    29.85600000
   H    102.91000000    36.12500000    31.24200000
   N    105.04000000    37.66000000    29.79000000
   C    106.07000000    36.90000000    30.46000000
   C    106.02000000    37.12000000    31.96000000
   O    106.56000000    36.35000000    32.75000000
   C    107.41000000    37.15000000    29.77000000
   C    108.54000000    36.18000000    30.10000000
   O    109.66000000    36.46000000    29.62000000
   O    108.38000000    35.16000000    30.80000000
   H    105.30000000    38.59000000    29.50000000
   H    105.85000000    35.86000000    30.20000000
   H    107.71000000    38.16000000    30.02000000
   H    107.20000000    37.16000000    28.70000000
   N    105.26000000    38.10000000    32.45000000
   C    104.86000000    38.18000000    33.84000000
   C    105.89000000    38.49000000    34.91000000
   O    105.82000000    37.99000000    36.03000000
   C    103.71000000    39.19000000    33.88000000
   C    103.07000000    39.17000000    35.27000000
   C    104.13000000    40.64000000    33.64000000
   C    101.59000000    39.53000000    35.20000000
   H    104.81000000    38.71000000    31.78000000
   H    104.41000000    37.21000000    34.07000000
   H    102.95000000    38.88000000    33.17000000
   H    103.65000000    39.80000000    35.94000000
   H    103.14000000    38.14000000    35.63000000
   H    104.63000000    41.08000000    34.50000000
   H    104.88000000    40.71000000    32.85000000
   H    103.21000000    41.16000000    33.39000000
   H    101.56000000    40.57000000    34.87000000
   H    100.99000000    38.81000000    34.63000000
   H    101.27000000    39.52000000    36.24000000
   N    106.85000000    39.32000000    34.49000000
   C    108.00000000    39.68000000    35.30000000
   C    109.35000000    39.40000000    34.65000000
   O    110.40000000    39.78000000    35.15000000
   C    107.96000000    41.18000000    35.58000000
   C    108.65000000    41.74000000    36.82000000
   O    109.42000000    42.71000000    36.63000000
   O    108.41000000    41.36000000    37.98000000
   H    106.69000000    39.76000000    33.59000000
   H    107.93000000    39.16000000    36.25000000
   H    106.93000000    41.49000000    35.69000000
   H    108.25000000    41.81000000    34.74000000
   N    109.39000000    38.80000000    33.46000000
   C    110.56000000    38.61000000    32.62000000
   C    111.13000000    39.86000000    31.96000000
   O    110.39000000    40.84000000    31.94000000
   H    108.58000000    38.25000000    33.21000000
   H    110.16000000    37.97000000    31.84000000
   H    111.28000000    38.10000000    33.25000000
   N    112.35000000    39.94000000    31.42000000
   C    112.91000000    41.16000000    30.88000000
   C    113.51000000    42.03000000    31.97000000
   O    114.05000000    41.59000000    32.99000000
   C    113.98000000    40.79000000    29.86000000
   C    115.20000000    40.17000000    30.52000000
   O    114.98000000    39.07000000    31.08000000
   O    116.33000000    40.68000000    30.42000000
   H    112.98000000    39.18000000    31.60000000
   H    112.07000000    41.63000000    30.38000000
   H    114.25000000    41.68000000    29.29000000
   H    113.70000000    40.06000000    29.10000000
   N    113.37000000    43.36000000    31.87000000
   C    112.78000000    44.08000000    30.77000000
   C    113.11000000    45.57000000    30.66000000
   O    112.93000000    46.30000000    31.63000000
   H    113.65000000    43.95000000    32.64000000
   H    111.70000000    43.98000000    30.86000000
   H    113.21000000    43.48000000    29.97000000
   N    113.94000000    46.03000000    29.72000000
   C    114.50000000    45.50000000    28.49000000
   C    113.46000000    44.95000000    27.53000000
   O    112.27000000    44.95000000    27.86000000
   C    115.64000000    44.55000000    28.85000000
   C    116.84000000    45.22000000    29.53000000
   C    116.70000000    45.59000000    30.99000000
   N    116.76000000    46.89000000    31.30000000
   O    116.50000000    44.76000000    31.88000000
   H    114.18000000    47.00000000    29.81000000
   H    114.99000000    46.31000000    27.96000000
   H    116.02000000    44.05000000    27.96000000
   H    115.19000000    43.72000000    29.40000000
   H    117.05000000    46.10000000    28.92000000
   H    117.75000000    44.62000000    29.46000000
   H    117.06000000    47.61000000    30.65000000
   H    116.83000000    47.15000000    32.27000000
   N    113.89000000    44.40000000    26.40000000
   C    113.10000000    43.61000000    25.48000000
   C    113.89000000    43.48000000    24.19000000
   O    115.10000000    43.65000000    24.12000000
   C    112.83000000    42.20000000    26.02000000
   C    111.79000000    42.05000000    27.12000000
   C    114.10000000    41.43000000    26.38000000
   H    114.89000000    44.50000000    26.27000000
   H    112.19000000    44.14000000    25.19000000
   H    112.35000000    41.60000000    25.25000000
   H    112.17000000    42.41000000    28.08000000
   H    110.91000000    42.65000000    26.91000000
   H    111.46000000    41.02000000    27.23000000
   H    114.68000000    41.25000000    25.47000000
   H    114.67000000    41.98000000    27.12000000
   H    113.77000000    40.48000000    26.79000000
   N    113.25000000    42.98000000    23.13000000
   C    113.94000000    42.73000000    21.88000000
   C    114.44000000    41.30000000    21.69000000
   O    114.76000000    40.96000000    20.56000000
   C    112.89000000    43.15000000    20.84000000
   C    113.51000000    43.48000000    19.49000000
   N    113.50000000    42.55000000    18.54000000
   O    114.10000000    44.53000000    19.25000000
   H    112.24000000    42.98000000    23.20000000
   H    114.76000000    43.43000000    21.75000000
   H    112.42000000    44.09000000    21.13000000
   H    112.11000000    42.41000000    20.69000000
   H    113.17000000    41.65000000    18.86000000
   H    113.87000000    42.71000000    17.61000000
   N    114.54000000    40.52000000    22.77000000
   C    115.12000000    39.19000000    22.83000000
   C    114.18000000    38.30000000    23.65000000
   O    113.38000000    38.82000000    24.42000000
   C    116.55000000    39.18000000    23.36000000
   C    116.81000000    39.82000000    24.71000000
   C    116.65000000    39.08000000    25.89000000
   C    117.37000000    41.10000000    24.76000000
   C    116.96000000    39.70000000    27.11000000
   C    117.58000000    41.77000000    25.97000000
   C    117.29000000    41.07000000    27.15000000
   O    117.48000000    41.69000000    28.35000000
   H    114.01000000    40.80000000    23.58000000
   H    115.23000000    38.78000000    21.83000000
   H    117.16000000    39.77000000    22.68000000
   H    116.93000000    38.17000000    23.42000000
   H    116.25000000    38.08000000    25.82000000
   H    117.49000000    41.64000000    23.83000000
   H    116.73000000    39.14000000    28.01000000
   H    118.04000000    42.75000000    25.99000000
   H    117.07000000    41.22000000    29.08000000
   N    114.16000000    36.99000000    23.43000000
   C    113.32000000    35.98000000    24.05000000
   C    111.85000000    36.36000000    23.91000000
   O    111.35000000    36.59000000    22.81000000
   C    113.68000000    34.60000000    23.50000000
   C    112.91000000    33.50000000    24.21000000
   C    113.69000000    33.07000000    25.44000000
   O    113.15000000    32.92000000    26.56000000
   O    114.93000000    32.89000000    25.38000000
   H    114.70000000    36.67000000    22.64000000
   H    113.45000000    35.94000000    25.13000000
   H    114.76000000    34.46000000    23.57000000
   H    113.36000000    34.48000000    22.46000000
   H    112.80000000    32.64000000    23.55000000
   H    111.88000000    33.65000000    24.54000000
   N    111.07000000    36.50000000    24.98000000
   C    109.66000000    36.85000000    24.96000000
   C    109.43000000    38.35000000    24.99000000
   O    108.74000000    38.87000000    25.86000000
   C    108.95000000    36.04000000    26.04000000
   C    109.04000000    34.52000000    25.91000000
   C    108.68000000    33.84000000    27.22000000
   O    107.52000000    33.78000000    27.68000000
   O    109.61000000    33.48000000    27.98000000
   H    111.62000000    36.33000000    25.80000000
   H    109.31000000    36.43000000    24.02000000
   H    107.90000000    36.34000000    26.15000000
   H    109.43000000    36.40000000    26.95000000
   H    110.03000000    34.21000000    25.58000000
   H    108.48000000    34.12000000    25.07000000
   N    109.88000000    39.05000000    23.94000000
   C    109.58000000    40.45000000    23.72000000
   H    108.65500000    40.70800000    24.23500000
   H    110.39400000    41.06200000    24.10800000
   H    109.46400000    40.63400000    22.65200000
   H    110.49000000    38.54000000    23.32000000
  Ca    108.10500000    32.66000000    29.98000000
   O    107.93500000    32.14000000    32.65000000
   H    107.42500000    32.33000000    33.44000000
   H    108.55500000    31.46000000    32.93000000
   O    107.37500000    30.92000000    27.93000000
   H    107.85500000    30.99000000    27.11000000
   H    106.84500000    30.13000000    27.82000000
   O    109.07500000    30.02000000    30.30000000
   H    109.80500000    29.70000000    29.77000000
   H    108.51500000    29.26000000    30.42000000
   O    110.71500000    32.81000000    30.78000000
   H    110.99500000    33.69000000    31.02000000
   H    111.51500000    32.36000000    30.52000000

Ca 1.00



