%chk=loop1.apoCaM-CA-Ng.Init31.run35.water4.chk
%nprocshared=20
%mem=10GB
%nosave
#b3lyp/svp scf=(tight,noincore,xqc) Test 
#IOP(5/87=12) Density=Current Pop=(MK,readradii) iop(6/33=2) iop(6/42=6)

loop1.apoCaM-CA-Ng.Init31.run35.water4 

   0  1 
   C     96.46000000    83.83000000    88.95000000
   C     97.63000000    84.55000000    88.30000000
   O     98.68000000    84.75000000    88.91000000
   H     95.59200000    83.88000000    88.29200000
   H     96.72500000    82.78700000    89.12200000
   H     96.22200000    84.30700000    89.90100000
   N     97.52000000    84.80000000    86.99000000
   C     98.62000000    85.21000000    86.14000000
   C     98.20000000    86.08000000    84.96000000
   O     97.02000000    86.19000000    84.64000000
   C     99.34000000    83.99000000    85.58000000
   C    100.75000000    84.20000000    85.06000000
   O    101.38000000    85.26000000    85.26000000
   O    101.26000000    83.19000000    84.52000000
   H     96.60000000    84.70000000    86.59000000
   H     99.37000000    85.71000000    86.75000000
   H     98.74000000    83.43000000    84.86000000
   H     99.42000000    83.30000000    86.42000000
   N     99.12000000    86.71000000    84.23000000
   C     98.81000000    87.52000000    83.07000000
   C     98.01000000    86.80000000    81.98000000
   O     97.09000000    87.46000000    81.50000000
   C    100.07000000    88.12000000    82.45000000
   C    100.57000000    89.30000000    83.27000000
   C    101.99000000    89.55000000    82.78000000
   C    102.72000000    90.76000000    83.37000000
   N    104.08000000    90.93000000    82.84000000
   H    100.08000000    86.45000000    84.39000000
   H     98.10000000    88.26000000    83.44000000
   H     99.92000000    88.44000000    81.43000000
   H    100.79000000    87.30000000    82.42000000
   H    100.68000000    88.94000000    84.29000000
   H     99.99000000    90.23000000    83.19000000
   H    102.02000000    89.61000000    81.69000000
   H    102.53000000    88.66000000    83.08000000
   H    102.93000000    90.56000000    84.42000000
   H    102.19000000    91.70000000    83.19000000
   H    104.19000000    91.35000000    81.93000000
   H    104.59000000    91.65000000    83.33000000
   H    104.44000000    89.99000000    82.86000000
   N     98.17000000    85.51000000    81.68000000
   C     99.23000000    84.56000000    81.93000000
   C     98.81000000    83.10000000    81.80000000
   O     97.83000000    82.86000000    81.10000000
   C    100.44000000    84.78000000    81.03000000
   C    101.69000000    84.30000000    81.75000000
   O    102.36000000    85.12000000    82.40000000
   O    102.07000000    83.11000000    81.73000000
   H     97.47000000    85.27000000    80.99000000
   H     99.57000000    84.70000000    82.95000000
   H    100.51000000    85.85000000    80.82000000
   H    100.24000000    84.19000000    80.13000000
   N     99.54000000    82.17000000    82.43000000
   C     99.18000000    80.78000000    82.58000000
   C    100.35000000    79.81000000    82.62000000
   O     99.98000000    78.65000000    82.76000000
   H    100.37000000    82.49000000    82.90000000
   H     98.62000000    80.53000000    81.67000000
   H     98.67000000    80.59000000    83.53000000
   N    101.62000000    80.15000000    82.35000000
   C    102.73000000    79.24000000    82.54000000
   C    102.74000000    78.16000000    81.47000000
   O    102.39000000    78.46000000    80.34000000
   C    104.14000000    79.82000000    82.68000000
   C    104.40000000    81.14000000    83.39000000
   O    103.84000000    81.25000000    84.50000000
   O    105.05000000    82.07000000    82.86000000
   H    101.93000000    81.09000000    82.18000000
   H    102.59000000    78.81000000    83.53000000
   H    104.61000000    79.85000000    81.70000000
   H    104.71000000    79.01000000    83.14000000
   N    103.08000000    76.89000000    81.69000000
   C    103.32000000    76.23000000    82.96000000
   C    104.74000000    76.26000000    83.51000000
   O    104.91000000    76.12000000    84.72000000
   H    103.05000000    76.28000000    80.88000000
   H    103.18000000    75.15000000    82.84000000
   H    102.68000000    76.61000000    83.75000000
   N    105.75000000    76.36000000    82.65000000
   C    107.16000000    76.07000000    82.83000000
   C    107.43000000    74.81000000    83.64000000
   O    108.04000000    74.83000000    84.71000000
   C    108.00000000    77.28000000    83.23000000
   C    108.10000000    78.47000000    82.29000000
   O    109.35000000    76.88000000    83.26000000
   H    105.38000000    76.39000000    81.71000000
   H    107.48000000    75.74000000    81.84000000
   H    107.73000000    77.55000000    84.25000000
   H    109.62000000    77.13000000    84.15000000
   H    107.24000000    79.13000000    82.45000000
   H    109.01000000    79.01000000    82.56000000
   H    108.32000000    78.26000000    81.24000000
   N    106.81000000    73.71000000    83.22000000
   C    107.09000000    72.33000000    83.57000000
   C    108.53000000    71.90000000    83.38000000
   O    108.80000000    70.85000000    82.80000000
   C    106.49000000    71.99000000    84.93000000
   C    105.26000000    72.77000000    85.39000000
   C    106.24000000    70.48000000    85.01000000
   C    104.00000000    72.58000000    84.55000000
   H    106.25000000    73.81000000    82.38000000
   H    106.58000000    71.68000000    82.86000000
   H    107.26000000    72.20000000    85.67000000
   H    105.52000000    73.83000000    85.40000000
   H    105.06000000    72.52000000    86.44000000
   H    105.73000000    70.26000000    85.94000000
   H    105.59000000    70.16000000    84.19000000
   H    107.18000000    69.93000000    85.04000000
   H    103.74000000    71.53000000    84.44000000
   H    103.30000000    73.29000000    84.99000000
   H    104.17000000    72.99000000    83.55000000
   N    109.53000000    72.63000000    83.88000000
   C    110.94000000    72.29000000    84.01000000
   C    111.32000000    72.09000000    85.46000000
   O    110.68000000    72.59000000    86.38000000
   C    111.85000000    73.27000000    83.29000000
   C    112.01000000    74.71000000    83.79000000
   O    111.40000000    73.41000000    81.96000000
   H    109.16000000    73.49000000    84.27000000
   H    111.07000000    71.32000000    83.53000000
   H    112.86000000    72.86000000    83.20000000
   H    112.24000000    73.41000000    81.50000000
   H    111.02000000    75.12000000    83.96000000
   H    112.61000000    74.67000000    84.69000000
   H    112.57000000    75.29000000    83.06000000
   N    112.36000000    71.29000000    85.76000000
   C    112.88000000    71.20000000    87.11000000
   C    113.43000000    72.55000000    87.53000000
   O    113.95000000    73.30000000    86.71000000
   C    114.00000000    70.16000000    87.15000000
   C    114.50000000    69.79000000    88.54000000
   O    113.53000000    68.92000000    86.69000000
   H    112.85000000    70.83000000    85.00000000
   H    112.04000000    70.85000000    87.71000000
   H    114.85000000    70.54000000    86.58000000
   H    112.79000000    68.72000000    87.27000000
   H    113.67000000    69.32000000    89.07000000
   H    115.34000000    69.10000000    88.45000000
   H    114.89000000    70.68000000    89.05000000
   N    113.28000000    72.92000000    88.80000000
   C    113.88000000    74.07000000    89.44000000
   C    113.58000000    75.36000000    88.69000000
   O    114.46000000    76.17000000    88.43000000
   C    115.38000000    73.86000000    89.64000000
   C    115.73000000    72.93000000    90.80000000
   C    117.22000000    72.84000000    91.10000000
   C    117.52000000    71.65000000    92.01000000
   N    118.89000000    71.18000000    91.77000000
   H    112.73000000    72.31000000    89.40000000
   H    113.44000000    74.13000000    90.43000000
   H    115.96000000    74.74000000    89.93000000
   H    115.76000000    73.47000000    88.70000000
   H    115.34000000    71.95000000    90.56000000
   H    115.23000000    73.19000000    91.73000000
   H    117.58000000    73.74000000    91.61000000
   H    117.83000000    72.71000000    90.21000000
   H    116.75000000    70.89000000    91.80000000
   H    117.46000000    71.86000000    93.07000000
   H    119.53000000    71.91000000    92.03000000
   H    119.14000000    70.35000000    92.29000000
   H    119.01000000    70.90000000    90.81000000
   N    112.29000000    75.55000000    88.39000000
   C    111.77000000    76.69000000    87.67000000
   C    110.47000000    76.52000000    86.89000000
   O    110.43000000    77.14000000    85.83000000
   C    111.66000000    77.86000000    88.65000000
   C    111.11000000    79.18000000    88.12000000
   C    111.36000000    80.30000000    89.11000000
   O    110.39000000    81.02000000    89.46000000
   O    112.51000000    80.67000000    89.44000000
   H    111.62000000    74.82000000    88.61000000
   H    112.55000000    77.01000000    86.98000000
   H    112.73000000    78.07000000    88.74000000
   H    111.27000000    77.55000000    89.62000000
   H    110.04000000    79.05000000    87.94000000
   H    111.64000000    79.35000000    87.18000000
   N    109.54000000    75.60000000    87.15000000
   C    109.25000000    74.78000000    88.30000000
   H    108.22300000    74.42000000    88.23900000
   H    109.93100000    73.93000000    88.32200000
   H    109.37500000    75.37000000    89.20800000
   H    108.99000000    75.39000000    86.33000000
  Ca    103.82900000    83.97000000    84.25000000
   O    104.08900000    86.53000000    84.64000000
   H    103.93900000    87.16000000    85.35000000
   H    104.62900000    87.00000000    84.01000000
   O    103.26900000    83.85000000    87.00000000
   H    103.71900000    84.39000000    87.65000000
   H    102.94900000    83.09000000    87.50000000
   O    105.95900000    83.40000000    85.78000000
   H    105.85900000    82.97000000    86.63000000
   H    106.89900000    83.43000000    85.63000000
   O    106.02900000    85.09000000    83.08000000
   H    106.77900000    85.63000000    83.32000000
   H    105.96900000    85.17000000    82.13000000

Ca 1.00



