%chk=loop1.apoCaM-CA-Ng.Init293.run52.water6.chk
%nprocshared=20
%mem=10GB
%nosave
#b3lyp/svp scf=(tight,noincore,xqc) Test 
#IOP(5/87=12) Density=Current Pop=(MK,readradii) iop(6/33=2) iop(6/42=6)

loop1.apoCaM-CA-Ng.Init293.run52.water6 

   0  1 
   C     48.96000000    74.26000000   113.12000000
   C     49.67000000    74.47000000   114.45000000
   O     50.20000000    75.56000000   114.69000000
   H     48.06200000    74.87700000   113.08700000
   H     49.62500000    74.54300000   112.30400000
   H     48.68300000    73.21100000   113.01700000
   N     49.63000000    73.46000000   115.31000000
   C     50.16000000    73.57000000   116.66000000
   C     51.66000000    73.31000000   116.77000000
   O     52.31000000    73.63000000   117.76000000
   C     49.39000000    72.61000000   117.55000000
   C     49.28000000    71.18000000   117.02000000
   O     48.75000000    70.91000000   115.92000000
   O     49.93000000    70.29000000   117.62000000
   H     49.18000000    72.60000000   115.03000000
   H     50.02000000    74.53000000   117.15000000
   H     48.38000000    72.98000000   117.71000000
   H     49.95000000    72.55000000   118.48000000
   N     52.33000000    72.78000000   115.75000000
   C     53.73000000    72.41000000   115.86000000
   C     54.73000000    73.52000000   115.60000000
   O     54.50000000    74.35000000   114.72000000
   C     54.01000000    71.34000000   114.81000000
   C     53.26000000    70.01000000   114.89000000
   C     52.95000000    69.47000000   116.28000000
   C     52.05000000    68.25000000   116.18000000
   N     50.80000000    68.47000000   115.44000000
   H     51.92000000    72.74000000   114.83000000
   H     53.91000000    72.03000000   116.87000000
   H     55.05000000    71.04000000   114.88000000
   H     53.91000000    71.66000000   113.77000000
   H     53.71000000    69.28000000   114.22000000
   H     52.32000000    70.27000000   114.41000000
   H     52.44000000    70.19000000   116.93000000
   H     53.85000000    69.09000000   116.77000000
   H     51.89000000    67.82000000   117.17000000
   H     52.50000000    67.44000000   115.60000000
   H     50.10000000    68.92000000   116.02000000
   H     50.93000000    68.91000000   114.54000000
   H     50.40000000    67.62000000   115.07000000
   N     55.90000000    73.62000000   116.24000000
   C     56.11000000    73.02000000   117.54000000
   C     56.80000000    73.97000000   118.50000000
   O     57.92000000    73.75000000   118.96000000
   C     56.72000000    71.62000000   117.50000000
   C     56.37000000    70.72000000   118.68000000
   O     57.22000000    69.92000000   119.12000000
   O     55.30000000    70.94000000   119.27000000
   H     56.54000000    74.31000000   115.86000000
   H     55.15000000    72.94000000   118.05000000
   H     57.79000000    71.75000000   117.38000000
   H     56.33000000    71.14000000   116.59000000
   N     56.16000000    75.05000000   118.96000000
   C     54.96000000    75.66000000   118.41000000
   C     54.67000000    77.06000000   118.92000000
   O     55.28000000    77.46000000   119.91000000
   H     56.65000000    75.59000000   119.66000000
   H     54.06000000    75.05000000   118.47000000
   H     55.14000000    75.81000000   117.34000000
   N     53.67000000    77.75000000   118.37000000
   C     52.69000000    77.33000000   117.39000000
   C     51.27000000    77.83000000   117.65000000
   O     51.15000000    78.76000000   118.44000000
   C     53.22000000    77.73000000   116.02000000
   C     53.53000000    79.20000000   115.79000000
   O     53.12000000    80.04000000   116.61000000
   O     54.09000000    79.46000000   114.70000000
   H     53.63000000    78.69000000   118.73000000
   H     52.61000000    76.24000000   117.31000000
   H     52.51000000    77.39000000   115.27000000
   H     54.18000000    77.22000000   115.86000000
   N     50.32000000    77.35000000   116.85000000
   C     48.97000000    77.87000000   116.92000000
   C     48.76000000    79.22000000   116.26000000
   O     47.67000000    79.76000000   116.45000000
   H     50.62000000    76.77000000   116.08000000
   H     48.58000000    77.92000000   117.94000000
   H     48.35000000    77.12000000   116.44000000
   N     49.67000000    79.73000000   115.42000000
   C     49.58000000    80.82000000   114.47000000
   C     49.76000000    80.27000000   113.07000000
   O     50.53000000    79.33000000   112.88000000
   C     50.52000000    81.95000000   114.89000000
   C     50.25000000    83.24000000   114.11000000
   O     51.82000000    81.46000000   114.62000000
   H     50.53000000    79.21000000   115.32000000
   H     48.55000000    81.18000000   114.52000000
   H     50.37000000    82.06000000   115.96000000
   H     52.33000000    81.19000000   115.39000000
   H     51.12000000    83.85000000   114.35000000
   H     50.26000000    83.08000000   113.04000000
   H     49.30000000    83.71000000   114.33000000
   N     48.98000000    80.78000000   112.11000000
   C     48.99000000    80.39000000   110.71000000
   C     48.85000000    81.58000000   109.77000000
   O     47.77000000    82.09000000   109.46000000
   C     47.97000000    79.27000000   110.53000000
   C     47.91000000    78.83000000   109.07000000
   C     46.60000000    79.52000000   111.14000000
   C     49.23000000    78.34000000   108.48000000
   H     48.30000000    81.45000000   112.43000000
   H     49.98000000    79.97000000   110.53000000
   H     48.37000000    78.38000000   111.02000000
   H     47.56000000    79.67000000   108.48000000
   H     47.20000000    78.06000000   108.77000000
   H     45.90000000    79.09000000   110.41000000
   H     46.46000000    79.08000000   112.13000000
   H     46.40000000    80.59000000   111.18000000
   H     50.05000000    79.02000000   108.71000000
   H     49.40000000    77.36000000   108.93000000
   H     49.16000000    78.11000000   107.42000000
   N     50.03000000    82.03000000   109.34000000
   C     50.32000000    83.27000000   108.66000000
   C     51.27000000    83.16000000   107.47000000
   O     51.23000000    84.09000000   106.66000000
   C     50.78000000    84.31000000   109.67000000
   C     51.06000000    85.69000000   109.08000000
   O     51.92000000    83.94000000   110.41000000
   H     50.87000000    81.56000000   109.64000000
   H     49.38000000    83.59000000   108.21000000
   H     49.96000000    84.38000000   110.39000000
   H     51.85000000    84.40000000   111.25000000
   H     50.19000000    86.00000000   108.50000000
   H     51.44000000    86.40000000   109.81000000
   H     51.89000000    85.64000000   108.37000000
   N     51.79000000    81.95000000   107.28000000
   C     52.43000000    81.45000000   106.07000000
   C     53.75000000    82.16000000   105.84000000
   O     54.07000000    83.18000000   106.45000000
   C     51.46000000    81.50000000   104.89000000
   C     50.07000000    80.89000000   105.02000000
   O     52.23000000    80.83000000   103.91000000
   H     51.85000000    81.40000000   108.12000000
   H     52.59000000    80.39000000   106.21000000
   H     51.37000000    82.54000000   104.57000000
   H     51.73000000    80.72000000   103.10000000
   H     49.49000000    81.61000000   105.60000000
   H     49.68000000    80.73000000   104.02000000
   H     50.07000000    79.98000000   105.62000000
   N     54.51000000    81.61000000   104.89000000
   C     55.69000000    82.21000000   104.31000000
   C     57.03000000    81.57000000   104.62000000
   O     57.98000000    82.23000000   104.19000000
   C     55.42000000    82.43000000   102.82000000
   C     55.97000000    83.66000000   102.10000000
   C     55.43000000    84.99000000   102.63000000
   C     54.03000000    85.27000000   102.11000000
   N     53.37000000    86.50000000   102.58000000
   H     54.04000000    81.00000000   104.22000000
   H     55.83000000    83.23000000   104.67000000
   H     54.34000000    82.34000000   102.69000000
   H     55.88000000    81.56000000   102.35000000
   H     55.88000000    83.66000000   101.01000000
   H     57.03000000    83.70000000   102.32000000
   H     55.93000000    85.74000000   102.01000000
   H     55.50000000    85.03000000   103.71000000
   H     53.35000000    84.43000000   102.30000000
   H     54.11000000    85.32000000   101.03000000
   H     52.45000000    86.62000000   102.18000000
   H     53.16000000    86.35000000   103.55000000
   H     53.95000000    87.33000000   102.57000000
   N     57.26000000    80.48000000   105.35000000
   C     56.44000000    79.35000000   105.75000000
   C     55.62000000    78.66000000   104.68000000
   O     54.51000000    78.21000000   104.97000000
   C     55.84000000    79.58000000   107.13000000
   C     55.73000000    78.32000000   107.98000000
   C     55.53000000    78.67000000   109.45000000
   O     55.15000000    79.80000000   109.81000000
   O     55.61000000    77.74000000   110.29000000
   H     58.24000000    80.23000000   105.33000000
   H     57.08000000    78.48000000   105.91000000
   H     54.94000000    80.20000000   107.08000000
   H     56.55000000    80.22000000   107.66000000
   H     56.63000000    77.72000000   107.97000000
   H     54.89000000    77.69000000   107.70000000
   N     56.05000000    78.83000000   103.43000000
   C     55.35000000    78.28000000   102.29000000
   H     54.44600000    78.86000000   102.10500000
   H     55.99400000    78.32300000   101.41200000
   H     55.08100000    77.24300000   102.49300000
   H     56.87000000    79.37000000   103.19000000
  Ca     55.40000000    79.36000000   112.52500000
   O     56.31000000    82.03000000   111.94500000
   H     56.98000000    81.96000000   111.27500000
   H     55.68000000    82.66000000   111.58500000
   O     56.92000000    79.75000000   114.76500000
   H     56.93000000    79.08000000   115.44500000
   H     57.75000000    80.22000000   114.89500000
   O     57.91000000    79.43000000   111.45500000
   H     58.23000000    80.18000000   110.94500000
   H     58.70000000    78.95000000   111.70500000
   O     56.64000000    77.21000000   113.63500000
   H     57.51000000    76.84000000   113.44500000
   H     56.18000000    76.50000000   114.08500000
   O     53.04000000    78.22000000   112.48500000
   H     53.05000000    77.28000000   112.63500000
   H     52.16000000    78.50000000   112.74500000
   O     53.56000000    81.35000000   112.58500000
   H     52.89000000    80.98000000   113.16500000
   H     53.60000000    82.27000000   112.82500000

Ca 1.00



