%chk=loop3.apoCaM-CA-Ng.Init293.run46.water4.chk
%nprocshared=20
%mem=10GB
%nosave
#b3lyp/svp scf=(tight,noincore,xqc) Test 
#IOP(5/87=12) Density=Current Pop=(MK,readradii) iop(6/33=2) iop(6/42=6)

loop3.apoCaM-CA-Ng.Init293.run46.water4 

   0  1 
   C     62.36000000    90.26000000    79.95000000
   C     63.33000000    89.61000000    78.98000000
   O     64.40000000    89.09000000    79.26000000
   H     61.41100000    89.72400000    79.92800000
   H     62.77400000    90.22400000    80.95800000
   H     62.19600000    91.29800000    79.66000000
   N     62.93000000    89.50000000    77.71000000
   C     63.74000000    89.09000000    76.58000000
   C     62.99000000    88.78000000    75.29000000
   O     62.03000000    89.40000000    74.83000000
   C     64.65000000    90.29000000    76.29000000
   C     65.51000000    90.15000000    75.04000000
   O     65.74000000    91.13000000    74.30000000
   O     66.11000000    89.09000000    74.80000000
   H     62.00000000    89.87000000    77.55000000
   H     64.34000000    88.24000000    76.90000000
   H     65.35000000    90.41000000    77.12000000
   H     63.96000000    91.13000000    76.13000000
   N     63.43000000    87.66000000    74.71000000
   C     62.95000000    87.07000000    73.48000000
   C     63.00000000    88.13000000    72.39000000
   O     64.08000000    88.56000000    71.98000000
   C     61.68000000    86.24000000    73.70000000
   C     61.42000000    85.18000000    72.64000000
   C     62.51000000    84.14000000    72.40000000
   C     61.96000000    83.05000000    71.47000000
   N     62.81000000    81.85000000    71.46000000
   H     64.14000000    87.19000000    75.25000000
   H     63.73000000    86.37000000    73.17000000
   H     60.87000000    86.96000000    73.84000000
   H     61.70000000    85.77000000    74.68000000
   H     61.28000000    85.79000000    71.74000000
   H     60.50000000    84.67000000    72.92000000
   H     62.93000000    83.80000000    73.35000000
   H     63.36000000    84.63000000    71.94000000
   H     61.75000000    83.49000000    70.49000000
   H     61.02000000    82.79000000    71.95000000
   H     62.41000000    81.16000000    70.84000000
   H     63.74000000    82.16000000    71.22000000
   H     62.80000000    81.35000000    72.34000000
   N     61.86000000    88.68000000    71.96000000
   C     61.75000000    89.40000000    70.71000000
   C     60.52000000    90.30000000    70.65000000
   O     59.57000000    90.17000000    71.42000000
   C     61.78000000    88.33000000    69.63000000
   C     60.56000000    87.44000000    69.43000000
   O     60.66000000    86.58000000    68.54000000
   O     59.52000000    87.50000000    70.13000000
   H     61.03000000    88.32000000    72.41000000
   H     62.60000000    90.03000000    70.45000000
   H     62.65000000    87.71000000    69.86000000
   H     62.00000000    88.78000000    68.66000000
   N     60.40000000    91.28000000    69.75000000
   C     59.24000000    92.14000000    69.65000000
   C     58.17000000    91.59000000    68.72000000
   O     58.44000000    90.94000000    67.72000000
   H     61.11000000    91.36000000    69.03000000
   H     59.53000000    93.09000000    69.22000000
   H     58.79000000    92.31000000    70.63000000
   N     56.90000000    91.75000000    69.11000000
   C     55.70000000    91.29000000    68.45000000
   C     54.78000000    92.30000000    67.78000000
   O     53.61000000    92.02000000    67.53000000
   C     55.07000000    90.45000000    69.56000000
   C     55.67000000    89.05000000    69.66000000
   N     54.97000000    88.10000000    70.29000000
   O     56.72000000    88.75000000    69.10000000
   H     56.81000000    92.25000000    69.99000000
   H     56.03000000    90.64000000    67.64000000
   H     53.99000000    90.42000000    69.45000000
   H     55.26000000    90.90000000    70.53000000
   H     54.11000000    88.30000000    70.78000000
   H     55.26000000    87.14000000    70.34000000
   N     55.31000000    93.53000000    67.66000000
   C     54.48000000    94.64000000    67.23000000
   C     53.09000000    94.90000000    67.78000000
   O     52.85000000    94.97000000    68.99000000
   H     56.21000000    93.71000000    68.08000000
   H     54.34000000    94.54000000    66.15000000
   H     55.04000000    95.55000000    67.45000000
   N     52.13000000    95.09000000    66.88000000
   C     50.69000000    95.17000000    67.01000000
   C     50.15000000    93.87000000    67.59000000
   O     48.92000000    93.82000000    67.65000000
   C     50.31000000    96.37000000    67.87000000
   C     50.68000000    97.75000000    67.38000000
   C     51.22000000    98.59000000    68.36000000
   C     50.67000000    98.13000000    66.03000000
   C     51.53000000    99.90000000    67.98000000
   C     50.88000000    99.47000000    65.69000000
   C     51.36000000   100.36000000    66.66000000
   O     51.86000000   101.59000000    66.31000000
   H     52.41000000    95.03000000    65.91000000
   H     50.14000000    95.26000000    66.07000000
   H     50.74000000    96.16000000    68.85000000
   H     49.22000000    96.40000000    67.95000000
   H     51.45000000    98.29000000    69.37000000
   H     50.18000000    97.48000000    65.32000000
   H     51.97000000   100.52000000    68.75000000
   H     50.82000000    99.79000000    64.66000000
   H     51.94000000   101.80000000    65.38000000
   N     50.89000000    92.78000000    67.79000000
   C     50.56000000    91.45000000    68.24000000
   C     49.72000000    90.70000000    67.22000000
   O     50.05000000    89.57000000    66.86000000
   C     49.88000000    91.37000000    69.60000000
   C     50.57000000    92.26000000    70.63000000
   C     50.01000000    89.93000000    70.09000000
   C     49.88000000    92.29000000    71.99000000
   H     51.88000000    92.90000000    67.62000000
   H     51.50000000    90.90000000    68.32000000
   H     48.84000000    91.70000000    69.54000000
   H     50.38000000    93.28000000    70.27000000
   H     51.60000000    91.93000000    70.71000000
   H     51.03000000    89.72000000    70.41000000
   H     49.41000000    89.83000000    71.00000000
   H     49.69000000    89.18000000    69.38000000
   H     50.01000000    91.46000000    72.68000000
   H     50.27000000    93.19000000    72.48000000
   H     48.84000000    92.41000000    71.68000000
   N     48.60000000    91.25000000    66.75000000
   C     47.61000000    90.50000000    66.00000000
   C     47.23000000    89.11000000    66.50000000
   O     47.05000000    88.18000000    65.72000000
   C     46.36000000    91.34000000    65.78000000
   O     45.83000000    91.82000000    67.00000000
   H     48.33000000    92.18000000    67.04000000
   H     48.08000000    90.52000000    65.01000000
   H     45.54000000    90.75000000    65.37000000
   H     46.63000000    92.26000000    65.25000000
   H     44.89000000    91.65000000    66.94000000
   N     47.03000000    89.01000000    67.82000000
   C     46.67000000    87.79000000    68.51000000
   C     47.59000000    86.61000000    68.23000000
   O     47.13000000    85.47000000    68.34000000
   C     45.19000000    87.53000000    68.26000000
   H     47.15000000    89.84000000    68.37000000
   H     46.83000000    87.93000000    69.58000000
   H     44.75000000    86.67000000    68.76000000
   H     44.58000000    88.40000000    68.50000000
   H     44.96000000    87.32000000    67.21000000
   N     48.87000000    86.81000000    67.93000000
   C     49.93000000    85.84000000    67.75000000
   C     50.63000000    85.62000000    69.08000000
   O     50.71000000    86.47000000    69.97000000
   C     50.94000000    86.40000000    66.74000000
   H     49.09000000    87.79000000    67.79000000
   H     49.64000000    84.90000000    67.29000000
   H     51.63000000    85.58000000    66.53000000
   H     50.32000000    86.59000000    65.87000000
   H     51.54000000    87.21000000    67.15000000
   N     51.18000000    84.42000000    69.27000000
   C     51.88000000    84.03000000    70.48000000
   C     51.24000000    84.15000000    71.85000000
   O     51.91000000    84.13000000    72.88000000
   C     53.26000000    84.68000000    70.48000000
   C     54.06000000    84.38000000    69.22000000
   C     55.54000000    84.74000000    69.15000000
   O     56.27000000    84.12000000    68.35000000
   O     55.99000000    85.60000000    69.93000000
   H     51.25000000    83.86000000    68.44000000
   H     52.03000000    82.95000000    70.39000000
   H     53.87000000    84.37000000    71.32000000
   H     53.13000000    85.77000000    70.47000000
   H     53.57000000    84.91000000    68.40000000
   H     53.96000000    83.32000000    68.97000000
   N     49.91000000    84.26000000    71.83000000
   C     49.04000000    84.64000000    72.93000000
   H     48.07200000    84.15300000    72.81200000
   H     49.48900000    84.33000000    73.87300000
   H     48.90400000    85.72200000    72.93000000
   H     49.48000000    84.21000000    70.92000000
  Ca     57.93000000    86.60000000    68.38000000
   O     56.08000000    86.74000000    66.42000000
   H     55.71000000    85.99000000    65.95000000
   H     55.46000000    87.46000000    66.26000000
   O     59.09000000    84.19000000    69.59000000
   H     59.63000000    83.75000000    68.93000000
   H     58.95000000    83.53000000    70.27000000
   O     58.66000000    88.39000000    66.64000000
   H     58.56000000    89.31000000    66.88000000
   H     58.39000000    88.35000000    65.72000000
   O     58.81000000    84.88000000    66.11000000
   H     58.89000000    83.99000000    65.76000000
   H     58.83000000    85.44000000    65.34000000

Ca 1.00



