%chk=loop3.apoCaM-CA-Ng.Init293.run80.water5.chk
%nprocshared=20
%mem=10GB
%nosave
#b3lyp/svp scf=(tight,noincore,xqc) Test 
#IOP(5/87=12) Density=Current Pop=(MK,readradii) iop(6/33=2) iop(6/42=6)

loop3.apoCaM-CA-Ng.Init293.run80.water5 

   0  1 
   C     65.48000000    72.42000000    51.55000000
   C     66.25000000    71.11000000    51.59000000
   O     67.02000000    70.90000000    50.66000000
   H     64.53000000    72.29800000    52.07100000
   H     66.06400000    73.20000000    52.03800000
   H     65.29200000    72.70000000    50.51400000
   N     65.98000000    70.24000000    52.57000000
   C     66.70000000    69.01000000    52.82000000
   C     66.98000000    68.85000000    54.31000000
   O     66.33000000    69.59000000    55.05000000
   C     65.92000000    67.83000000    52.25000000
   C     66.68000000    66.52000000    52.23000000
   O     67.93000000    66.57000000    52.31000000
   O     66.18000000    65.37000000    52.22000000
   H     65.34000000    70.63000000    53.25000000
   H     67.65000000    69.08000000    52.28000000
   H     65.75000000    68.05000000    51.20000000
   H     65.01000000    67.68000000    52.85000000
   N     67.93000000    67.99000000    54.70000000
   C     68.18000000    67.52000000    56.05000000
   C     67.04000000    66.67000000    56.59000000
   O     65.88000000    66.77000000    56.20000000
   C     68.62000000    68.66000000    56.96000000
   C     69.83000000    68.36000000    57.83000000
   C     69.93000000    69.16000000    59.13000000
   C     68.67000000    69.19000000    59.99000000
   N     68.52000000    67.83000000    60.53000000
   H     68.32000000    67.42000000    53.97000000
   H     69.06000000    66.87000000    56.03000000
   H     67.71000000    68.82000000    57.55000000
   H     68.80000000    69.60000000    56.44000000
   H     70.74000000    68.54000000    57.25000000
   H     69.88000000    67.30000000    58.08000000
   H     70.19000000    70.19000000    58.91000000
   H     70.79000000    68.79000000    59.69000000
   H     67.79000000    69.32000000    59.36000000
   H     68.65000000    69.98000000    60.74000000
   H     69.20000000    67.55000000    61.23000000
   H     67.67000000    67.63000000    61.04000000
   H     68.56000000    67.13000000    59.80000000
   N     67.40000000    65.81000000    57.55000000
   C     66.43000000    65.00000000    58.26000000
   C     65.62000000    65.75000000    59.31000000
   O     66.02000000    66.75000000    59.90000000
   C     67.16000000    63.77000000    58.78000000
   C     68.43000000    63.93000000    59.61000000
   O     68.99000000    65.04000000    59.71000000
   O     69.02000000    62.94000000    60.10000000
   H     68.35000000    65.76000000    57.86000000
   H     65.75000000    64.56000000    57.53000000
   H     67.47000000    63.16000000    57.93000000
   H     66.48000000    63.11000000    59.30000000
   N     64.37000000    65.33000000    59.53000000
   C     63.52000000    65.84000000    60.59000000
   C     62.62000000    67.03000000    60.28000000
   O     63.02000000    67.99000000    59.63000000
   H     64.11000000    64.48000000    59.05000000
   H     64.02000000    66.12000000    61.52000000
   H     62.85000000    65.01000000    60.79000000
   N     61.41000000    66.94000000    60.83000000
   C     60.41000000    67.99000000    60.94000000
   C     59.61000000    67.67000000    62.20000000
   O     59.60000000    66.61000000    62.81000000
   C     59.57000000    67.90000000    59.67000000
   C     58.46000000    68.94000000    59.74000000
   N     57.23000000    68.55000000    59.40000000
   O     58.67000000    70.07000000    60.17000000
   H     61.13000000    66.09000000    61.30000000
   H     60.84000000    68.99000000    60.99000000
   H     59.14000000    66.90000000    59.68000000
   H     60.26000000    68.12000000    58.86000000
   H     56.96000000    67.61000000    59.14000000
   H     56.48000000    69.15000000    59.71000000
   N     58.93000000    68.67000000    62.77000000
   C     58.01000000    68.61000000    63.88000000
   C     58.84000000    68.92000000    65.12000000
   O     59.01000000    70.09000000    65.47000000
   H     59.13000000    69.60000000    62.41000000
   H     57.57000000    67.62000000    63.99000000
   H     57.19000000    69.33000000    63.88000000
   N     59.15000000    67.80000000    65.76000000
   C     59.71000000    67.77000000    67.10000000
   C     61.03000000    68.54000000    67.16000000
   O     61.07000000    69.60000000    67.77000000
   C     58.63000000    68.17000000    68.09000000
   C     59.02000000    67.85000000    69.51000000
   C     59.21000000    66.51000000    69.90000000
   C     59.27000000    68.87000000    70.43000000
   C     59.53000000    66.21000000    71.23000000
   C     59.57000000    68.54000000    71.75000000
   C     59.70000000    67.21000000    72.21000000
   O     60.11000000    66.92000000    73.48000000
   H     58.80000000    66.94000000    65.35000000
   H     60.00000000    66.74000000    67.32000000
   H     57.71000000    67.64000000    67.85000000
   H     58.45000000    69.25000000    68.00000000
   H     59.00000000    65.73000000    69.19000000
   H     59.05000000    69.91000000    70.24000000
   H     59.51000000    65.15000000    71.43000000
   H     59.61000000    69.31000000    72.50000000
   H     60.19000000    67.67000000    74.07000000
   N     62.06000000    68.09000000    66.44000000
   C     63.40000000    68.63000000    66.49000000
   C     64.18000000    68.62000000    67.80000000
   O     65.33000000    68.19000000    67.80000000
   C     63.42000000    69.96000000    65.74000000
   C     62.67000000    69.97000000    64.41000000
   C     64.86000000    70.33000000    65.40000000
   C     63.15000000    68.92000000    63.42000000
   H     62.00000000    67.11000000    66.18000000
   H     64.04000000    68.01000000    65.86000000
   H     62.93000000    70.70000000    66.37000000
   H     62.77000000    70.92000000    63.89000000
   H     61.62000000    69.75000000    64.64000000
   H     65.33000000    70.57000000    66.36000000
   H     65.45000000    69.54000000    64.94000000
   H     64.96000000    71.26000000    64.85000000
   H     62.55000000    69.05000000    62.52000000
   H     64.22000000    68.98000000    63.21000000
   H     62.96000000    67.90000000    63.77000000
   N     63.50000000    69.08000000    68.85000000
   C     64.06000000    69.22000000    70.17000000
   C     65.30000000    70.10000000    70.21000000
   O     66.29000000    69.78000000    70.86000000
   C     62.94000000    69.71000000    71.08000000
   O     62.37000000    70.89000000    70.56000000
   H     62.51000000    69.28000000    68.81000000
   H     64.31000000    68.19000000    70.44000000
   H     63.33000000    69.75000000    72.10000000
   H     62.14000000    68.96000000    71.12000000
   H     61.75000000    71.26000000    71.20000000
   N     65.31000000    71.12000000    69.34000000
   C     66.33000000    72.09000000    69.00000000
   C     67.66000000    71.52000000    68.54000000
   O     68.73000000    71.98000000    68.93000000
   C     66.39000000    73.03000000    70.20000000
   H     64.39000000    71.37000000    69.01000000
   H     65.96000000    72.63000000    68.13000000
   H     66.93000000    73.95000000    69.99000000
   H     65.40000000    73.30000000    70.56000000
   H     66.98000000    72.55000000    70.99000000
   N     67.66000000    70.42000000    67.78000000
   C     68.90000000    69.86000000    67.26000000
   C     69.17000000    70.18000000    65.80000000
   O     68.34000000    70.56000000    64.97000000
   C     68.92000000    68.37000000    67.58000000
   H     66.89000000    69.78000000    67.64000000
   H     69.69000000    70.29000000    67.89000000
   H     69.91000000    68.09000000    67.23000000
   H     68.84000000    68.14000000    68.64000000
   H     68.07000000    68.02000000    67.00000000
   N     70.45000000    70.09000000    65.44000000
   C     70.96000000    70.33000000    64.11000000
   C     70.57000000    71.56000000    63.30000000
   O     70.59000000    71.61000000    62.07000000
   C     70.80000000    69.07000000    63.26000000
   C     71.24000000    67.79000000    63.96000000
   C     71.12000000    66.60000000    63.02000000
   O     70.10000000    66.37000000    62.33000000
   O     71.98000000    65.69000000    63.00000000
   H     71.14000000    69.87000000    66.15000000
   H     72.05000000    70.41000000    64.14000000
   H     71.42000000    69.23000000    62.38000000
   H     69.77000000    69.03000000    62.93000000
   H     70.53000000    67.56000000    64.76000000
   H     72.26000000    67.82000000    64.36000000
   N     70.30000000    72.62000000    64.06000000
   C     69.77000000    73.91000000    63.66000000
   H     68.83100000    74.09400000    64.18200000
   H     70.48600000    74.69200000    63.91300000
   H     69.59300000    73.91300000    62.58400000
   H     70.20000000    72.36000000    65.03000000
  Ca     71.12000000    64.17000000    61.04000000
   O     71.61000000    64.03000000    58.48000000
   H     70.88000000    64.35000000    57.95000000
   H     72.18000000    63.57000000    57.86000000
   O     74.08000000    64.10000000    60.78000000
   H     74.71000000    63.49000000    61.14000000
   H     74.62000000    64.80000000    60.41000000
   O     72.08000000    61.72000000    61.59000000
   H     71.68000000    61.43000000    62.41000000
   H     72.35000000    60.91000000    61.16000000
   O     71.92000000    66.55000000    59.93000000
   H     72.34000000    67.17000000    60.53000000
   H     72.43000000    66.60000000    59.13000000
   O     69.99000000    63.20000000    63.44000000
   H     70.25000000    62.32000000    63.70000000
   H     69.22000000    63.40000000    63.97000000

Ca 1.00



