%chk=loop1.holoCaM.run15.water2.chk
%nprocshared=20
%mem=10GB
%nosave
#b3lyp/svp scf=(tight,noincore,xqc) Test 
#IOP(5/87=12) Density=Current Pop=(MK,readradii) iop(6/33=2) iop(6/42=6)

loop1.holoCaM.run15.water2 

   0  1 
   C     50.68000000    44.27000000    -4.44000000
   C     49.24000000    44.30000000    -4.94000000
   O     48.75000000    43.22000000    -5.27000000
   H     51.28500000    44.95400000    -5.03500000
   H     50.70900000    44.57700000    -3.39400000
   H     51.07700000    43.25900000    -4.53400000
   N     48.59000000    45.45000000    -5.10000000
   C     47.26000000    45.65000000    -5.65000000
   C     47.42000000    45.55000000    -7.16000000
   O     48.10000000    46.42000000    -7.71000000
   C     46.74000000    46.97000000    -5.10000000
   C     45.30000000    47.35000000    -5.42000000
   O     44.84000000    48.42000000    -4.98000000
   O     44.54000000    46.58000000    -6.06000000
   H     49.06000000    46.28000000    -4.77000000
   H     46.63000000    44.82000000    -5.36000000
   H     47.47000000    47.72000000    -5.39000000
   H     46.92000000    46.81000000    -4.04000000
   N     47.01000000    44.45000000    -7.81000000
   C     47.45000000    44.11000000    -9.14000000
   C     46.52000000    44.73000000   -10.17000000
   O     46.85000000    44.86000000   -11.35000000
   C     47.68000000    42.60000000    -9.21000000
   C     48.35000000    42.23000000   -10.53000000
   C     48.97000000    40.84000000   -10.47000000
   C     49.46000000    40.67000000   -11.91000000
   N     49.97000000    39.32000000   -12.20000000
   H     46.55000000    43.75000000    -7.25000000
   H     48.40000000    44.60000000    -9.39000000
   H     46.77000000    42.06000000    -8.96000000
   H     48.41000000    42.42000000    -8.42000000
   H     49.16000000    42.95000000   -10.62000000
   H     47.66000000    42.30000000   -11.37000000
   H     48.30000000    40.07000000   -10.10000000
   H     49.82000000    40.80000000    -9.80000000
   H     50.21000000    41.44000000   -12.08000000
   H     48.67000000    40.98000000   -12.60000000
   H     50.65000000    38.94000000   -11.55000000
   H     49.21000000    38.67000000   -12.35000000
   H     50.42000000    39.30000000   -13.10000000
   N     45.28000000    45.08000000    -9.82000000
   C     44.20000000    45.65000000   -10.61000000
   C     43.96000000    47.08000000   -10.14000000
   O     43.26000000    47.82000000   -10.82000000
   C     42.93000000    44.82000000   -10.65000000
   C     42.49000000    44.20000000    -9.33000000
   O     41.75000000    43.19000000    -9.34000000
   O     43.01000000    44.59000000    -8.26000000
   H     44.96000000    44.64000000    -8.97000000
   H     44.54000000    45.77000000   -11.64000000
   H     43.03000000    44.08000000   -11.45000000
   H     42.08000000    45.40000000   -11.02000000
   N     44.53000000    47.56000000    -9.04000000
   C     44.50000000    48.93000000    -8.55000000
   C     43.18000000    49.54000000    -8.12000000
   O     42.81000000    50.63000000    -8.56000000
   H     45.25000000    46.98000000    -8.63000000
   H     44.97000000    49.54000000    -9.32000000
   H     45.14000000    48.86000000    -7.67000000
   N     42.40000000    48.79000000    -7.33000000
   C     41.11000000    49.22000000    -6.83000000
   C     41.32000000    50.00000000    -5.54000000
   O     40.32000000    50.35000000    -4.92000000
   C     40.10000000    48.09000000    -6.60000000
   C     40.69000000    46.79000000    -6.08000000
   O     40.36000000    45.69000000    -6.56000000
   O     41.48000000    46.90000000    -5.11000000
   H     42.85000000    48.05000000    -6.82000000
   H     40.68000000    49.93000000    -7.54000000
   H     39.56000000    47.89000000    -7.52000000
   H     39.31000000    48.34000000    -5.90000000
   N     42.56000000    50.23000000    -5.11000000
   C     42.82000000    50.75000000    -3.79000000
   C     42.60000000    49.82000000    -2.60000000
   O     42.69000000    50.21000000    -1.44000000
   H     43.42000000    49.82000000    -5.45000000
   H     42.21000000    51.64000000    -3.63000000
   H     43.86000000    51.08000000    -3.79000000
   N     42.37000000    48.54000000    -2.89000000
   C     42.17000000    47.51000000    -1.89000000
   C     42.97000000    46.24000000    -2.17000000
   O     43.32000000    45.97000000    -3.31000000
   C     40.69000000    47.23000000    -1.66000000
   C     39.79000000    48.46000000    -1.59000000
   O     40.11000000    46.53000000    -2.74000000
   H     42.40000000    48.26000000    -3.86000000
   H     42.48000000    47.79000000    -0.88000000
   H     40.54000000    46.64000000    -0.76000000
   H     40.51000000    46.93000000    -3.51000000
   H     39.85000000    49.09000000    -2.48000000
   H     38.78000000    48.07000000    -1.52000000
   H     40.01000000    49.07000000    -0.72000000
   N     43.11000000    45.42000000    -1.12000000
   C     43.62000000    44.07000000    -1.25000000
   C     42.66000000    42.93000000    -0.98000000
   O     41.84000000    43.10000000    -0.08000000
   C     44.97000000    43.93000000    -0.55000000
   C     46.12000000    44.41000000    -1.43000000
   C     45.40000000    42.58000000     0.01000000
   C     47.47000000    44.60000000    -0.74000000
   H     42.76000000    45.72000000    -0.22000000
   H     43.85000000    44.03000000    -2.32000000
   H     44.88000000    44.64000000     0.27000000
   H     45.96000000    45.40000000    -1.86000000
   H     46.36000000    43.79000000    -2.30000000
   H     45.20000000    41.81000000    -0.73000000
   H     46.45000000    42.47000000     0.29000000
   H     44.81000000    42.29000000     0.89000000
   H     48.01000000    43.67000000    -0.59000000
   H     48.04000000    45.17000000    -1.46000000
   H     47.31000000    45.21000000     0.15000000
   N     42.67000000    41.90000000    -1.84000000
   C     41.79000000    40.75000000    -1.80000000
   C     42.54000000    39.47000000    -1.43000000
   O     43.76000000    39.48000000    -1.33000000
   C     41.07000000    40.55000000    -3.13000000
   C     42.05000000    40.18000000    -4.24000000
   O     40.06000000    39.56000000    -3.16000000
   H     43.34000000    41.89000000    -2.59000000
   H     40.97000000    40.85000000    -1.09000000
   H     40.58000000    41.45000000    -3.50000000
   H     39.21000000    39.87000000    -2.84000000
   H     42.83000000    40.91000000    -4.45000000
   H     42.43000000    39.17000000    -4.06000000
   H     41.44000000    40.15000000    -5.14000000
   N     41.88000000    38.33000000    -1.24000000
   C     42.54000000    37.11000000    -0.82000000
   C     43.69000000    36.77000000    -1.74000000
   O     44.81000000    36.54000000    -1.28000000
   C     41.51000000    35.98000000    -0.72000000
   C     41.97000000    34.65000000    -0.14000000
   O     40.45000000    36.43000000     0.09000000
   H     40.87000000    38.37000000    -1.30000000
   H     42.95000000    37.30000000     0.17000000
   H     41.06000000    35.79000000    -1.70000000
   H     39.73000000    35.80000000     0.02000000
   H     41.13000000    33.96000000    -0.11000000
   H     42.72000000    34.20000000    -0.79000000
   H     42.39000000    34.91000000     0.83000000
   N     43.43000000    36.70000000    -3.05000000
   C     44.46000000    36.47000000    -4.04000000
   C     45.62000000    37.46000000    -4.00000000
   O     46.75000000    37.03000000    -4.21000000
   C     43.72000000    36.49000000    -5.37000000
   C     44.70000000    36.17000000    -6.50000000
   C     44.09000000    36.39000000    -7.88000000
   C     43.80000000    37.83000000    -8.28000000
   N     44.97000000    38.64000000    -8.68000000
   H     42.47000000    36.84000000    -3.34000000
   H     44.82000000    35.46000000    -3.84000000
   H     43.23000000    37.46000000    -5.40000000
   H     42.90000000    35.78000000    -5.41000000
   H     44.90000000    35.11000000    -6.39000000
   H     45.59000000    36.79000000    -6.41000000
   H     43.13000000    35.88000000    -7.87000000
   H     44.62000000    35.90000000    -8.70000000
   H     43.20000000    38.42000000    -7.58000000
   H     43.18000000    37.74000000    -9.17000000
   H     44.76000000    39.54000000    -9.08000000
   H     45.70000000    38.77000000    -7.99000000
   H     45.53000000    38.26000000    -9.43000000
   N     45.44000000    38.71000000    -3.58000000
   C     46.57000000    39.61000000    -3.53000000
   C     47.35000000    39.45000000    -2.24000000
   O     48.58000000    39.56000000    -2.17000000
   C     46.10000000    41.06000000    -3.66000000
   C     45.68000000    41.20000000    -5.12000000
   C     44.96000000    42.54000000    -5.28000000
   O     44.21000000    42.94000000    -4.37000000
   O     44.87000000    43.16000000    -6.36000000
   H     44.50000000    39.01000000    -3.36000000
   H     47.20000000    39.41000000    -4.40000000
   H     46.94000000    41.75000000    -3.59000000
   H     45.27000000    41.30000000    -2.99000000
   H     44.97000000    40.43000000    -5.41000000
   H     46.49000000    41.04000000    -5.83000000
   N     46.62000000    39.19000000    -1.15000000
   C     47.13000000    38.75000000     0.13000000
   H     48.01600000    39.33100000     0.38600000
   H     46.36700000    38.89500000     0.89500000
   H     47.39200000    37.69400000     0.07400000
   H     45.62000000    39.18000000    -1.27000000
  Ca     42.89000000    44.73000000    -5.59100000
   O     40.84000000    44.09000000    -4.13100000
   H     40.51000000    44.73000000    -3.49100000
   H     40.11000000    43.50000000    -4.28100000
   O     41.67000000    42.56000000    -6.62100000
   H     41.70000000    42.81000000    -7.54100000
   H     40.87000000    42.03000000    -6.54100000

Ca 1.00



