%chk=loop1.holoCaM.run83.water2.chk
%nprocshared=20
%mem=10GB
%nosave
#b3lyp/svp scf=(tight,noincore,xqc) Test 
#IOP(5/87=12) Density=Current Pop=(MK,readradii) iop(6/33=2) iop(6/42=6)

loop1.holoCaM.run83.water2 

   0  1 
   C     44.24000000    74.89000000    40.89000000
   C     42.95000000    74.61000000    41.65000000
   O     42.11000000    75.51000000    41.71000000
   H     45.04700000    74.29200000    41.31300000
   H     44.10700000    74.63000000    39.84000000
   H     44.49000000    75.94800000    40.97400000
   N     42.88000000    73.46000000    42.32000000
   C     41.86000000    73.14000000    43.30000000
   C     41.98000000    74.18000000    44.41000000
   O     43.08000000    74.32000000    44.95000000
   C     42.08000000    71.76000000    43.91000000
   C     41.14000000    71.29000000    45.01000000
   O     40.16000000    72.01000000    45.30000000
   O     41.28000000    70.15000000    45.50000000
   H     43.64000000    72.85000000    42.09000000
   H     40.88000000    73.11000000    42.83000000
   H     43.08000000    71.80000000    44.34000000
   H     42.02000000    71.05000000    43.08000000
   N     40.91000000    74.87000000    44.79000000
   C     40.89000000    75.87000000    45.84000000
   C     40.19000000    75.50000000    47.14000000
   O     39.82000000    76.32000000    47.98000000
   C     40.27000000    77.11000000    45.19000000
   C     40.90000000    77.69000000    43.93000000
   C     42.40000000    77.86000000    44.17000000
   C     43.06000000    78.70000000    43.08000000
   N     44.48000000    78.97000000    43.34000000
   H     40.02000000    74.74000000    44.32000000
   H     41.95000000    76.03000000    46.00000000
   H     40.35000000    77.85000000    45.99000000
   H     39.20000000    77.00000000    45.01000000
   H     40.38000000    78.60000000    43.63000000
   H     40.64000000    76.95000000    43.17000000
   H     42.92000000    76.90000000    44.22000000
   H     42.53000000    78.21000000    45.19000000
   H     42.44000000    79.60000000    43.08000000
   H     43.02000000    78.18000000    42.12000000
   H     44.66000000    79.72000000    43.99000000
   H     44.98000000    78.16000000    43.68000000
   H     44.99000000    79.09000000    42.48000000
   N     40.18000000    74.19000000    47.41000000
   C     39.74000000    73.58000000    48.64000000
   C     40.69000000    72.52000000    49.17000000
   O     40.82000000    72.35000000    50.38000000
   C     38.41000000    72.84000000    48.47000000
   C     37.46000000    73.73000000    47.68000000
   O     36.82000000    74.61000000    48.28000000
   O     37.58000000    73.63000000    46.44000000
   H     40.46000000    73.62000000    46.62000000
   H     39.58000000    74.41000000    49.33000000
   H     37.97000000    72.54000000    49.42000000
   H     38.62000000    71.94000000    47.89000000
   N     41.34000000    71.83000000    48.23000000
   C     42.17000000    70.74000000    48.71000000
   C     41.48000000    69.38000000    48.72000000
   O     41.64000000    68.69000000    49.73000000
   H     41.27000000    72.05000000    47.24000000
   H     42.66000000    71.04000000    49.64000000
   H     43.06000000    70.67000000    48.09000000
   N     40.47000000    69.17000000    47.89000000
   C     39.45000000    68.14000000    47.98000000
   C     39.65000000    67.13000000    46.86000000
   O     38.90000000    66.16000000    46.79000000
   C     38.04000000    68.70000000    47.81000000
   C     37.90000000    69.62000000    46.60000000
   O     38.34000000    69.39000000    45.45000000
   O     37.02000000    70.49000000    46.71000000
   H     40.41000000    69.90000000    47.19000000
   H     39.43000000    67.63000000    48.94000000
   H     37.89000000    69.34000000    48.68000000
   H     37.34000000    67.86000000    47.76000000
   N     40.63000000    67.34000000    45.98000000
   C     41.02000000    66.48000000    44.88000000
   C     40.14000000    66.45000000    43.64000000
   O     40.16000000    65.40000000    43.00000000
   H     41.04000000    68.26000000    46.07000000
   H     41.26000000    65.49000000    45.26000000
   H     41.99000000    66.90000000    44.59000000
   N     39.34000000    67.50000000    43.44000000
   C     38.48000000    67.82000000    42.32000000
   C     38.54000000    69.25000000    41.80000000
   O     38.44000000    70.23000000    42.53000000
   C     37.03000000    67.42000000    42.58000000
   C     36.86000000    65.91000000    42.43000000
   O     36.66000000    67.75000000    43.90000000
   H     39.25000000    68.13000000    44.22000000
   H     38.82000000    67.19000000    41.49000000
   H     36.32000000    67.95000000    41.94000000
   H     37.39000000    68.22000000    44.30000000
   H     35.80000000    65.72000000    42.62000000
   H     36.89000000    65.71000000    41.36000000
   H     37.52000000    65.32000000    43.07000000
   N     38.48000000    69.42000000    40.48000000
   C     38.42000000    70.69000000    39.78000000
   C     37.09000000    70.87000000    39.06000000
   O     36.55000000    70.07000000    38.31000000
   C     39.65000000    70.91000000    38.90000000
   C     40.88000000    71.49000000    39.60000000
   C     39.32000000    71.84000000    37.75000000
   C     42.14000000    71.52000000    38.75000000
   H     38.42000000    68.61000000    39.88000000
   H     38.53000000    71.53000000    40.46000000
   H     40.00000000    69.95000000    38.51000000
   H     41.05000000    70.82000000    40.44000000
   H     40.74000000    72.49000000    40.01000000
   H     38.81000000    72.77000000    38.02000000
   H     40.20000000    72.09000000    37.15000000
   H     38.70000000    71.30000000    37.03000000
   H     43.03000000    71.47000000    39.39000000
   H     42.20000000    70.72000000    38.02000000
   H     42.14000000    72.50000000    38.28000000
   N     36.49000000    72.03000000    39.35000000
   C     35.16000000    72.40000000    38.90000000
   C     35.20000000    73.59000000    37.95000000
   O     36.24000000    74.20000000    37.74000000
   C     34.26000000    72.72000000    40.09000000
   C     34.21000000    71.52000000    41.03000000
   O     34.75000000    73.75000000    40.91000000
   H     36.95000000    72.70000000    39.95000000
   H     34.68000000    71.57000000    38.39000000
   H     33.27000000    72.97000000    39.71000000
   H     35.55000000    73.34000000    41.26000000
   H     33.47000000    70.89000000    40.53000000
   H     35.21000000    71.14000000    41.27000000
   H     33.81000000    71.78000000    42.01000000
   N     34.07000000    73.95000000    37.32000000
   C     33.88000000    75.13000000    36.51000000
   C     34.28000000    76.44000000    37.18000000
   O     34.73000000    77.38000000    36.52000000
   C     32.43000000    75.31000000    36.07000000
   C     31.97000000    74.25000000    35.08000000
   O     31.62000000    75.34000000    37.23000000
   H     33.34000000    73.27000000    37.46000000
   H     34.48000000    75.00000000    35.61000000
   H     32.33000000    76.23000000    35.50000000
   H     30.78000000    75.63000000    36.86000000
   H     32.36000000    74.49000000    34.09000000
   H     32.23000000    73.26000000    35.47000000
   H     30.88000000    74.29000000    35.00000000
   N     34.25000000    76.49000000    38.51000000
   C     34.72000000    77.65000000    39.25000000
   C     36.23000000    77.78000000    39.23000000
   O     36.83000000    78.83000000    39.49000000
   C     34.21000000    77.60000000    40.69000000
   C     32.71000000    77.82000000    40.78000000
   C     31.80000000    76.60000000    40.61000000
   C     30.37000000    77.12000000    40.49000000
   N     29.50000000    76.15000000    39.81000000
   H     33.72000000    75.78000000    39.00000000
   H     34.35000000    78.53000000    38.72000000
   H     34.76000000    78.41000000    41.18000000
   H     34.54000000    76.65000000    41.11000000
   H     32.46000000    78.62000000    40.08000000
   H     32.60000000    78.27000000    41.76000000
   H     31.90000000    75.83000000    41.37000000
   H     31.98000000    76.07000000    39.67000000
   H     30.30000000    78.09000000    40.00000000
   H     30.04000000    77.29000000    41.51000000
   H     29.38000000    75.28000000    40.31000000
   H     28.64000000    76.63000000    39.58000000
   H     29.86000000    75.90000000    38.90000000
   N     36.90000000    76.66000000    38.96000000
   C     38.32000000    76.46000000    39.20000000
   C     39.10000000    76.43000000    37.90000000
   O     40.12000000    75.75000000    37.78000000
   C     38.58000000    75.33000000    40.19000000
   C     37.82000000    75.52000000    41.50000000
   C     37.79000000    74.29000000    42.39000000
   O     37.12000000    73.30000000    42.01000000
   O     38.54000000    74.15000000    43.37000000
   H     36.31000000    75.86000000    38.80000000
   H     38.63000000    77.38000000    39.70000000
   H     39.64000000    75.23000000    40.39000000
   H     38.14000000    74.46000000    39.70000000
   H     36.77000000    75.78000000    41.37000000
   H     38.27000000    76.34000000    42.06000000
   N     38.55000000    77.04000000    36.85000000
   C     38.97000000    76.81000000    35.48000000
   H     40.00000000    76.45300000    35.47100000
   H     38.32300000    76.06200000    35.02200000
   H     38.90400000    77.74200000    34.91800000
   H     37.85000000    77.67000000    37.21000000
  Ca     37.73000000    71.86000000    44.64000000
   O     35.59000000    70.31000000    43.95000000
   H     35.70000000    69.36000000    43.87000000
   H     34.65000000    70.45000000    44.00000000
   O     35.22000000    72.99000000    45.26000000
   H     34.47000000    72.81000000    45.82000000
   H     34.85000000    73.46000000    44.50000000

Ca 1.00



