%chk=loop1.holoCaM-CaMKII.run94.water2.chk
%nprocshared=20
%mem=10GB
%nosave
#b3lyp/svp scf=(tight,noincore,xqc) Test 
#IOP(5/87=12) Density=Current Pop=(MK,readradii) iop(6/33=2) iop(6/42=6)

loop1.holoCaM-CaMKII.run94.water2 

   0  1 
   C     45.58000000    16.59000000   -14.06300000
   C     45.37000000    15.26000000   -14.78300000
   O     44.22000000    14.88000000   -14.95300000
   H     46.40600000    17.12800000   -14.52800000
   H     44.67200000    17.18900000   -14.13300000
   H     45.81300000    16.40300000   -13.01500000
   N     46.42000000    14.52000000   -15.13300000
   C     46.48000000    13.21000000   -15.75300000
   C     46.39000000    12.09000000   -14.72300000
   O     47.39000000    11.46000000   -14.38300000
   C     47.69000000    13.13000000   -16.68300000
   C     47.83000000    11.80000000   -17.41300000
   O     48.97000000    11.32000000   -17.59300000
   O     46.88000000    11.15000000   -17.89300000
   H     47.39000000    14.78000000   -14.98300000
   H     45.60000000    13.07000000   -16.37300000
   H     48.64000000    13.29000000   -16.17300000
   H     47.56000000    13.78000000   -17.54300000
   N     45.21000000    11.85000000   -14.14300000
   C     44.94000000    10.86000000   -13.12300000
   C     44.87000000     9.48000000   -13.75300000
   O     45.32000000     8.51000000   -13.14300000
   C     43.63000000    11.21000000   -12.41300000
   C     43.71000000    12.47000000   -11.55300000
   C     42.39000000    12.69000000   -10.82300000
   C     42.43000000    13.95000000    -9.96300000
   N     42.43000000    15.18000000   -10.77300000
   H     44.44000000    12.33000000   -14.58300000
   H     45.72000000    10.87000000   -12.36300000
   H     43.36000000    10.37000000   -11.77300000
   H     42.84000000    11.49000000   -13.10300000
   H     43.92000000    13.31000000   -12.21300000
   H     44.56000000    12.43000000   -10.86300000
   H     42.09000000    11.93000000   -10.10300000
   H     41.61000000    12.70000000   -11.58300000
   H     43.36000000    13.93000000    -9.40300000
   H     41.58000000    13.97000000    -9.27300000
   H     41.77000000    15.11000000   -11.52300000
   H     42.10000000    15.98000000   -10.24300000
   H     43.29000000    15.35000000   -11.28300000
   N     44.29000000     9.29000000   -14.93300000
   C     44.32000000     7.99000000   -15.57300000
   C     45.72000000     7.54000000   -15.97300000
   O     46.00000000     6.34000000   -15.94300000
   C     43.41000000     7.81000000   -16.78300000
   C     43.46000000     8.84000000   -17.90300000
   O     42.69000000     8.61000000   -18.86300000
   O     44.03000000     9.94000000   -17.79300000
   H     43.87000000    10.09000000   -15.39300000
   H     44.06000000     7.15000000   -14.92300000
   H     42.39000000     7.85000000   -16.40300000
   H     43.54000000     6.82000000   -17.23300000
   N     46.63000000     8.49000000   -16.20300000
   C     48.06000000     8.26000000   -16.26300000
   C     48.58000000     7.62000000   -17.54300000
   O     49.05000000     6.48000000   -17.52300000
   H     46.31000000     9.45000000   -16.27300000
   H     48.46000000     7.66000000   -15.45300000
   H     48.51000000     9.25000000   -16.14300000
   N     48.28000000     8.34000000   -18.62300000
   C     48.71000000     8.11000000   -19.98300000
   C     49.80000000     9.05000000   -20.48300000
   O     50.46000000     8.68000000   -21.46300000
   C     47.50000000     8.06000000   -20.91300000
   C     46.62000000     9.29000000   -20.74300000
   O     45.42000000     9.15000000   -20.43300000
   O     47.15000000    10.42000000   -20.78300000
   H     47.71000000     9.15000000   -18.42300000
   H     49.13000000     7.10000000   -20.02300000
   H     46.95000000     7.15000000   -20.71300000
   H     47.93000000     8.11000000   -21.92300000
   N     50.15000000    10.13000000   -19.79300000
   C     51.14000000    11.11000000   -20.19300000
   C     50.64000000    12.25000000   -21.06300000
   O     51.44000000    12.95000000   -21.68300000
   H     49.67000000    10.43000000   -18.95300000
   H     51.96000000    10.59000000   -20.69300000
   H     51.61000000    11.54000000   -19.31300000
   N     49.34000000    12.54000000   -21.07300000
   C     48.65000000    13.66000000   -21.68300000
   C     47.49000000    14.31000000   -20.95300000
   O     46.91000000    13.57000000   -20.16300000
   C     48.09000000    13.28000000   -23.04300000
   C     49.20000000    13.18000000   -24.09300000
   O     47.45000000    12.03000000   -23.11300000
   H     48.71000000    11.81000000   -20.74300000
   H     49.36000000    14.46000000   -21.88300000
   H     47.38000000    14.01000000   -23.44300000
   H     47.44000000    11.67000000   -22.22300000
   H     49.82000000    12.30000000   -23.88300000
   H     48.79000000    12.99000000   -25.08300000
   H     49.88000000    14.03000000   -24.11300000
   N     47.07000000    15.54000000   -21.26300000
   C     45.99000000    16.29000000   -20.65300000
   C     45.09000000    16.73000000   -21.79300000
   O     45.48000000    16.91000000   -22.95300000
   C     46.68000000    17.41000000   -19.87300000
   C     47.46000000    16.77000000   -18.72300000
   C     45.68000000    18.39000000   -19.26300000
   C     48.12000000    17.89000000   -17.91300000
   H     47.54000000    15.97000000   -22.05300000
   H     45.52000000    15.60000000   -19.95300000
   H     47.35000000    17.89000000   -20.58300000
   H     48.27000000    16.12000000   -19.05300000
   H     46.69000000    16.25000000   -18.16300000
   H     46.10000000    19.34000000   -18.93300000
   H     44.93000000    18.72000000   -19.98300000
   H     45.20000000    17.92000000   -18.40300000
   H     48.64000000    18.49000000   -18.66300000
   H     47.33000000    18.47000000   -17.44300000
   H     48.79000000    17.48000000   -17.15300000
   N     43.81000000    16.83000000   -21.44300000
   C     42.64000000    17.22000000   -22.20300000
   C     41.79000000    18.24000000   -21.45300000
   O     41.79000000    18.32000000   -20.23300000
   C     41.79000000    15.97000000   -22.43300000
   C     42.50000000    14.89000000   -23.22300000
   O     41.37000000    15.44000000   -21.19300000
   H     43.64000000    16.64000000   -20.46300000
   H     42.91000000    17.60000000   -23.19300000
   H     40.93000000    16.29000000   -23.03300000
   H     42.14000000    15.07000000   -20.74300000
   H     43.44000000    14.58000000   -22.75300000
   H     41.90000000    13.98000000   -23.33300000
   H     42.75000000    15.21000000   -24.23300000
   N     40.94000000    18.98000000   -22.17300000
   C     40.11000000    19.96000000   -21.49300000
   C     39.15000000    19.48000000   -20.41300000
   O     38.82000000    20.15000000   -19.44300000
   C     39.36000000    20.73000000   -22.57300000
   C     40.35000000    21.65000000   -23.28300000
   O     38.79000000    19.79000000   -23.45300000
   H     41.05000000    18.97000000   -23.18300000
   H     40.68000000    20.65000000   -20.88300000
   H     38.50000000    21.30000000   -22.21300000
   H     38.24000000    20.21000000   -24.11300000
   H     41.24000000    21.08000000   -23.53300000
   H     39.94000000    21.91000000   -24.26300000
   H     40.58000000    22.48000000   -22.62300000
   N     38.87000000    18.17000000   -20.49300000
   C     38.12000000    17.36000000   -19.55300000
   C     38.82000000    17.17000000   -18.22300000
   O     38.13000000    17.25000000   -17.20300000
   C     37.86000000    16.03000000   -20.26300000
   C     36.69000000    15.33000000   -19.57300000
   C     36.32000000    13.98000000   -20.18300000
   C     35.17000000    13.31000000   -19.43300000
   N     34.41000000    12.39000000   -20.29300000
   H     39.24000000    17.67000000   -21.28300000
   H     37.18000000    17.90000000   -19.49300000
   H     38.72000000    15.38000000   -20.12300000
   H     37.57000000    16.17000000   -21.30300000
   H     35.84000000    16.01000000   -19.50300000
   H     36.93000000    15.32000000   -18.50300000
   H     37.25000000    13.41000000   -20.26300000
   H     35.98000000    14.10000000   -21.20300000
   H     34.55000000    14.03000000   -18.91300000
   H     35.56000000    12.66000000   -18.64300000
   H     33.85000000    11.78000000   -19.71300000
   H     33.85000000    12.94000000   -20.93300000
   H     34.96000000    11.82000000   -20.92300000
   N     40.15000000    17.09000000   -18.23300000
   C     40.94000000    16.94000000   -17.02300000
   C     41.26000000    18.27000000   -16.35300000
   O     41.09000000    18.33000000   -15.14300000
   C     42.18000000    16.16000000   -17.44300000
   C     41.87000000    14.72000000   -17.84300000
   C     43.04000000    14.12000000   -18.61300000
   O     43.70000000    13.23000000   -18.03300000
   O     43.40000000    14.51000000   -19.74300000
   H     40.72000000    17.13000000   -19.06300000
   H     40.46000000    16.41000000   -16.19300000
   H     42.77000000    16.12000000   -16.52300000
   H     42.82000000    16.73000000   -18.11300000
   H     41.01000000    14.61000000   -18.50300000
   H     41.68000000    14.25000000   -16.87300000
   N     41.57000000    19.30000000   -17.14300000
   C     41.68000000    20.64000000   -16.60300000
   H     42.43900000    21.19300000   -17.15700000
   H     40.72100000    21.14900000   -16.69500000
   H     41.96400000    20.58700000   -15.55200000
   H     41.63000000    19.13000000   -18.13300000
  Ca     44.94000000    11.54000000   -19.54300000
   O     42.66000000    10.89000000   -20.52300000
   H     42.19000000    10.66000000   -21.32300000
   H     42.57000000    10.12000000   -19.96300000
   O     44.87000000    12.08000000   -22.05300000
   H     45.43000000    12.53000000   -22.68300000
   H     44.34000000    11.48000000   -22.58300000

Ca 1.00



