%chk=loop1.holoCaM.run51.water2.chk
%nprocshared=20
%mem=10GB
%nosave
#b3lyp/svp scf=(tight,noincore,xqc) Test 
#IOP(5/87=12) Density=Current Pop=(MK,readradii) iop(6/33=2) iop(6/42=6)

loop1.holoCaM.run51.water2 

   0  1 
   C     51.27000000    75.20000000   -11.02100000
   C     50.04000000    75.11000000   -10.14100000
   O     49.07000000    74.42000000   -10.43100000
   H     52.11300000    74.72900000   -10.51500000
   H     51.08100000    74.68800000   -11.96400000
   H     51.50200000    76.24700000   -11.21600000
   N     50.04000000    75.96000000    -9.10100000
   C     48.85000000    76.23000000    -8.32100000
   C     47.79000000    77.04000000    -9.06100000
   O     48.15000000    78.04000000    -9.67100000
   C     49.26000000    76.75000000    -6.94100000
   C     48.19000000    76.97000000    -5.87100000
   O     48.34000000    77.89000000    -5.04100000
   O     47.10000000    76.36000000    -5.94100000
   H     50.89000000    76.49000000    -8.96100000
   H     48.44000000    75.25000000    -8.10100000
   H     49.79000000    77.70000000    -7.02100000
   H     49.96000000    76.09000000    -6.43100000
   N     46.57000000    76.50000000    -9.12100000
   C     45.50000000    76.89000000   -10.01100000
   C     44.21000000    77.36000000    -9.37100000
   O     43.41000000    78.02000000   -10.02100000
   C     45.25000000    75.76000000   -11.01100000
   C     44.53000000    76.28000000   -12.25100000
   C     44.52000000    75.22000000   -13.35100000
   C     43.82000000    75.58000000   -14.65100000
   N     42.40000000    75.28000000   -14.42100000
   H     46.43000000    75.69000000    -8.54100000
   H     45.80000000    77.74000000   -10.63100000
   H     44.66000000    74.97000000   -10.54100000
   H     46.21000000    75.37000000   -11.36100000
   H     44.81000000    77.28000000   -12.56100000
   H     43.50000000    76.38000000   -11.91100000
   H     44.20000000    74.26000000   -12.95100000
   H     45.58000000    75.12000000   -13.58100000
   H     44.22000000    75.05000000   -15.52100000
   H     43.87000000    76.66000000   -14.82100000
   H     41.85000000    75.71000000   -15.15100000
   H     42.23000000    74.29000000   -14.33100000
   H     42.12000000    75.73000000   -13.56100000
   N     44.07000000    77.15000000    -8.05100000
   C     43.13000000    77.91000000    -7.25100000
   C     43.74000000    78.91000000    -6.29100000
   O     43.06000000    79.67000000    -5.60100000
   C     42.09000000    77.03000000    -6.56100000
   C     42.68000000    75.96000000    -5.64100000
   O     41.86000000    75.09000000    -5.26100000
   O     43.89000000    75.91000000    -5.35100000
   H     44.83000000    76.65000000    -7.62100000
   H     42.60000000    78.61000000    -7.90100000
   H     41.50000000    76.50000000    -7.32100000
   H     41.46000000    77.68000000    -5.95100000
   N     45.07000000    79.02000000    -6.29100000
   C     45.84000000    80.04000000    -5.62100000
   C     45.80000000    79.88000000    -4.11100000
   O     45.63000000    80.90000000    -3.45100000
   H     45.59000000    78.33000000    -6.82100000
   H     45.59000000    81.08000000    -5.85100000
   H     46.85000000    79.75000000    -5.93100000
   N     45.94000000    78.70000000    -3.50100000
   C     45.76000000    78.47000000    -2.08100000
   C     47.12000000    78.21000000    -1.45100000
   O     47.12000000    78.04000000    -0.23100000
   C     44.77000000    77.34000000    -1.82100000
   C     45.13000000    75.99000000    -2.44100000
   O     44.34000000    75.03000000    -2.39100000
   O     46.31000000    75.72000000    -2.75100000
   H     46.14000000    77.89000000    -4.07100000
   H     45.37000000    79.36000000    -1.59100000
   H     43.75000000    77.68000000    -2.03100000
   H     44.80000000    77.23000000    -0.74100000
   N     48.23000000    78.11000000    -2.19100000
   C     49.49000000    77.77000000    -1.57100000
   C     49.77000000    76.28000000    -1.45100000
   O     50.67000000    75.87000000    -0.72100000
   H     48.14000000    78.29000000    -3.18100000
   H     49.53000000    78.18000000    -0.56100000
   H     50.29000000    78.16000000    -2.20100000
   N     49.05000000    75.41000000    -2.15100000
   C     49.28000000    73.98000000    -2.21100000
   C     49.01000000    73.33000000    -3.56100000
   O     48.32000000    73.96000000    -4.37100000
   C     48.37000000    73.24000000    -1.24100000
   C     48.70000000    73.35000000     0.24900000
   O     46.99000000    73.39000000    -1.47100000
   H     48.36000000    75.74000000    -2.81100000
   H     50.32000000    73.75000000    -1.97100000
   H     48.52000000    72.18000000    -1.48100000
   H     46.83000000    74.28000000    -1.81100000
   H     48.07000000    72.80000000     0.95900000
   H     49.69000000    72.97000000     0.49900000
   H     48.68000000    74.39000000     0.54900000
   N     49.58000000    72.16000000    -3.87100000
   C     49.53000000    71.41000000    -5.11100000
   C     48.70000000    70.18000000    -4.76100000
   O     49.01000000    69.39000000    -3.87100000
   C     50.93000000    71.24000000    -5.67100000
   C     51.29000000    72.59000000    -6.30100000
   C     51.03000000    70.17000000    -6.75100000
   C     52.73000000    72.78000000    -6.78100000
   H     50.18000000    71.81000000    -3.15100000
   H     48.91000000    71.98000000    -5.80100000
   H     51.68000000    70.97000000    -4.93100000
   H     51.20000000    73.27000000    -5.46100000
   H     50.59000000    72.98000000    -7.03100000
   H     50.21000000    70.20000000    -7.47100000
   H     51.97000000    70.07000000    -7.29100000
   H     50.94000000    69.19000000    -6.27100000
   H     52.99000000    73.84000000    -6.81100000
   H     53.39000000    72.29000000    -6.06100000
   H     52.96000000    72.42000000    -7.78100000
   N     47.55000000    69.99000000    -5.41100000
   C     46.72000000    68.80000000    -5.35100000
   C     47.06000000    67.92000000    -6.55100000
   O     48.00000000    68.20000000    -7.28100000
   C     45.26000000    69.23000000    -5.37100000
   C     44.66000000    69.92000000    -6.59100000
   O     44.41000000    68.14000000    -5.09100000
   H     47.17000000    70.73000000    -5.98100000
   H     46.94000000    68.29000000    -4.41100000
   H     45.11000000    69.98000000    -4.59100000
   H     43.67000000    68.54000000    -4.62100000
   H     43.58000000    69.87000000    -6.68100000
   H     44.81000000    71.00000000    -6.70100000
   H     45.12000000    69.63000000    -7.53100000
   N     46.33000000    66.82000000    -6.75100000
   C     46.54000000    65.80000000    -7.76100000
   C     46.50000000    66.35000000    -9.17100000
   O     47.43000000    66.28000000    -9.97100000
   C     45.61000000    64.60000000    -7.61100000
   C     46.13000000    63.66000000    -6.52100000
   O     44.33000000    65.11000000    -7.29100000
   H     45.49000000    66.77000000    -6.18100000
   H     47.59000000    65.53000000    -7.60100000
   H     45.57000000    63.96000000    -8.49100000
   H     43.77000000    64.82000000    -8.01100000
   H     46.12000000    64.14000000    -5.54100000
   H     45.50000000    62.77000000    -6.54100000
   H     47.13000000    63.31000000    -6.77100000
   N     45.44000000    67.15000000    -9.36100000
   C     45.28000000    67.98000000   -10.53100000
   C     46.37000000    68.99000000   -10.86100000
   O     46.52000000    69.31000000   -12.04100000
   C     43.98000000    68.79000000   -10.50100000
   C     42.77000000    67.88000000   -10.39100000
   C     42.56000000    67.00000000   -11.62100000
   C     41.09000000    66.59000000   -11.66100000
   N     40.79000000    65.67000000   -10.54100000
   H     44.89000000    67.25000000    -8.52100000
   H     45.33000000    67.33000000   -11.40100000
   H     43.91000000    69.44000000   -11.37100000
   H     43.99000000    69.40000000    -9.60100000
   H     41.93000000    68.55000000   -10.20100000
   H     42.82000000    67.28000000    -9.48100000
   H     43.17000000    66.09000000   -11.54100000
   H     42.85000000    67.46000000   -12.56100000
   H     40.93000000    65.92000000   -12.50100000
   H     40.48000000    67.49000000   -11.71100000
   H     40.12000000    64.99000000   -10.86100000
   H     41.55000000    65.07000000   -10.27100000
   H     40.44000000    66.18000000    -9.74100000
   N     47.01000000    69.62000000    -9.88100000
   C     48.07000000    70.57000000   -10.13100000
   C     49.38000000    69.83000000   -10.37100000
   O     50.16000000    70.17000000   -11.25100000
   C     48.03000000    71.60000000    -9.01100000
   C     46.81000000    72.52000000    -9.08100000
   C     46.40000000    73.19000000    -7.78100000
   O     46.80000000    72.69000000    -6.71100000
   O     45.69000000    74.22000000    -7.76100000
   H     46.79000000    69.37000000    -8.92100000
   H     47.90000000    71.16000000   -11.03100000
   H     48.98000000    72.13000000    -9.00100000
   H     48.09000000    71.08000000    -8.05100000
   H     45.95000000    71.93000000    -9.40100000
   H     47.03000000    73.21000000    -9.89100000
   N     49.60000000    68.79000000    -9.56100000
   C     50.80000000    67.98000000    -9.67100000
   H     51.60500000    68.44500000    -9.10200000
   H     50.60400000    66.98400000    -9.27500000
   H     51.09300000    67.90400000   -10.71800000
   H     49.02000000    68.60000000    -8.75100000
  Ca     45.85000000    74.36000000    -4.99100000
   O     45.53000000    72.28000000    -3.44100000
   H     45.80000000    72.30000000    -2.52100000
   H     44.60000000    72.04000000    -3.42100000
   O     43.64000000    72.95000000    -5.69100000
   H     43.18000000    72.15000000    -5.43100000
   H     42.96000000    73.63000000    -5.64100000

Ca 1.00



