%chk=loop2.apoCaM-CA-Ng.Init295.run81.water3.chk
%nprocshared=20
%mem=10GB
%nosave
#b3lyp/svp scf=(tight,noincore,xqc) Test 
#IOP(5/87=12) Density=Current Pop=(MK,readradii) iop(6/33=2) iop(6/42=6)

loop2.apoCaM-CA-Ng.Init295.run81.water3 

   -2  1 
   C     19.80000000    95.38000000    59.75000000
   C     19.98000000    96.60000000    60.64000000
   O     20.72000000    97.54000000    60.34000000
   H     19.01700000    95.57700000    59.01800000
   H     20.73500000    95.16600000    59.23200000
   H     19.51800000    94.52200000    60.36100000
   N     19.33000000    96.63000000    61.81000000
   C     19.34000000    97.61000000    62.88000000
   C     18.20000000    98.60000000    62.84000000
   O     17.67000000    99.06000000    63.85000000
   C     19.40000000    96.79000000    64.17000000
   C     19.95000000    97.63000000    65.32000000
   O     19.56000000    97.27000000    66.45000000
   O     20.65000000    98.65000000    65.15000000
   H     18.84000000    95.78000000    62.06000000
   H     20.27000000    98.18000000    62.81000000
   H     20.00000000    95.90000000    63.99000000
   H     18.42000000    96.40000000    64.41000000
   N     17.82000000    98.95000000    61.61000000
   C     16.84000000    99.96000000    61.25000000
   C     15.58000000    99.43000000    60.58000000
   O     15.68000000    98.38000000    59.96000000
   C     17.63000000   100.98000000    60.44000000
   H     18.41000000    98.58000000    60.88000000
   H     16.56000000   100.45000000    62.19000000
   H     16.85000000   101.64000000    60.07000000
   H     18.37000000   101.43000000    61.12000000
   H     18.15000000   100.54000000    59.59000000
   N     14.42000000   100.10000000    60.59000000
   C     14.09000000   101.46000000    60.98000000
   C     13.01000000   101.63000000    62.04000000
   O     11.93000000   101.05000000    61.89000000
   C     13.56000000   102.25000000    59.78000000
   C     13.55000000   103.74000000    60.04000000
   O     14.31000000   104.27000000    60.89000000
   O     12.84000000   104.32000000    59.19000000
   H     13.62000000    99.56000000    60.30000000
   H     14.98000000   101.92000000    61.41000000
   H     12.53000000   102.00000000    59.54000000
   H     14.12000000   102.09000000    58.86000000
   N     13.28000000   102.38000000    63.11000000
   C     12.49000000   102.33000000    64.32000000
   C     12.88000000   101.32000000    65.38000000
   O     14.03000000   100.89000000    65.33000000
   H     14.20000000   102.76000000    63.29000000
   H     11.49000000   102.07000000    63.98000000
   H     12.32000000   103.30000000    64.80000000
   N     11.99000000   100.95000000    66.31000000
   C     10.54000000   100.88000000    66.22000000
   C     10.19000000   100.03000000    65.00000000
   O     10.73000000    98.94000000    64.83000000
   C      9.97000000   100.24000000    67.48000000
   C      8.45000000   100.36000000    67.55000000
   N      7.90000000   101.23000000    68.39000000
   O      7.82000000    99.62000000    66.80000000
   H     12.38000000   100.37000000    67.03000000
   H     10.03000000   101.83000000    66.14000000
   H     10.39000000   100.73000000    68.36000000
   H     10.29000000    99.21000000    67.62000000
   H      8.41000000   101.96000000    68.86000000
   H      6.89000000   101.12000000    68.45000000
   N      9.34000000   100.48000000    64.06000000
   C      8.98000000    99.78000000    62.84000000
   C      8.63000000   100.73000000    61.71000000
   O      7.69000000   100.42000000    60.97000000
   H      8.74000000   101.26000000    64.28000000
   H      8.06000000    99.34000000    63.22000000
   H      9.85000000    99.19000000    62.53000000
   N      9.16000000   101.95000000    61.60000000
   C      8.90000000   102.92000000    60.56000000
   C      9.50000000   102.55000000    59.21000000
   O      9.99000000   103.44000000    58.52000000
   C      9.29000000   104.34000000    60.97000000
   C      8.05000000   104.99000000    61.58000000
   O     10.53000000   104.35000000    61.64000000
   H     10.01000000   102.03000000    62.14000000
   H      7.83000000   102.94000000    60.36000000
   H      9.48000000   104.88000000    60.04000000
   H     11.03000000   105.13000000    61.39000000
   H      7.75000000   104.52000000    62.52000000
   H      8.22000000   106.06000000    61.72000000
   H      7.15000000   104.88000000    60.98000000
   N      9.38000000   101.28000000    58.82000000
   C      9.96000000   100.68000000    57.63000000
   C      9.17000000   100.81000000    56.33000000
   O      7.99000000   100.49000000    56.23000000
   C     10.36000000    99.24000000    57.91000000
   C     11.64000000    99.21000000    58.75000000
   C      9.18000000    98.47000000    58.50000000
   C     12.02000000    97.75000000    59.01000000
   H      8.78000000   100.78000000    59.46000000
   H     10.95000000   101.10000000    57.49000000
   H     10.59000000    98.80000000    56.94000000
   H     11.41000000    99.62000000    59.73000000
   H     12.43000000    99.75000000    58.23000000
   H      9.48000000    97.43000000    58.37000000
   H      9.00000000    98.72000000    59.55000000
   H      8.29000000    98.69000000    57.91000000
   H     12.19000000    97.13000000    58.13000000
   H     12.95000000    97.79000000    59.57000000
   H     11.23000000    97.20000000    59.52000000
   N      9.78000000   101.38000000    55.29000000
   C      9.31000000   101.65000000    53.95000000
   C     10.18000000   101.22000000    52.78000000
   O     11.39000000   101.44000000    52.79000000
   C      8.82000000   103.09000000    53.85000000
   C      9.71000000   104.14000000    54.50000000
   O      9.46000000   104.45000000    55.68000000
   O     10.74000000   104.56000000    53.92000000
   H     10.60000000   101.90000000    55.59000000
   H      8.43000000   101.01000000    53.86000000
   H      7.84000000   103.13000000    54.32000000
   H      8.77000000   103.37000000    52.79000000
   N      9.47000000   100.81000000    51.73000000
   C     10.08000000   100.32000000    50.50000000
   C     11.22000000    99.36000000    50.81000000
   O     11.02000000    98.36000000    51.50000000
   C      9.03000000    99.68000000    49.59000000
   C      9.53000000    99.29000000    48.22000000
   C      9.87000000    97.94000000    48.02000000
   C      9.70000000   100.26000000    47.23000000
   C     10.52000000    97.55000000    46.85000000
   C     10.35000000    99.85000000    46.07000000
   C     10.79000000    98.53000000    45.89000000
   H      8.46000000   100.88000000    51.72000000
   H     10.54000000   101.15000000    49.97000000
   H      8.26000000   100.46000000    49.59000000
   H      8.67000000    98.80000000    50.12000000
   H      9.72000000    97.23000000    48.82000000
   H      9.46000000   101.31000000    47.32000000
   H     10.85000000    96.53000000    46.67000000
   H     10.46000000   100.61000000    45.30000000
   H     11.36000000    98.19000000    45.04000000
   N     12.46000000    99.56000000    50.36000000
   C     13.59000000    98.68000000    50.56000000
   C     14.10000000    98.61000000    52.00000000
   O     14.80000000    97.66000000    52.33000000
   C     14.68000000    99.06000000    49.57000000
   C     14.02000000    99.97000000    48.53000000
   C     12.88000000   100.54000000    49.38000000
   H     13.30000000    97.66000000    50.31000000
   H     15.46000000    99.66000000    50.05000000
   H     15.09000000    98.18000000    49.08000000
   H     14.62000000   100.83000000    48.25000000
   H     13.68000000    99.32000000    47.72000000
   H     13.23000000   101.45000000    49.87000000
   H     12.08000000   100.75000000    48.67000000
   N     13.63000000    99.46000000    52.91000000
   C     13.85000000    99.30000000    54.34000000
   C     13.22000000    98.03000000    54.89000000
   O     13.63000000    97.63000000    55.98000000
   C     13.38000000   100.54000000    55.09000000
   C     13.96000000   101.92000000    54.78000000
   C     13.26000000   103.01000000    55.57000000
   O     13.72000000   104.16000000    55.77000000
   O     12.18000000   102.77000000    56.16000000
   H     13.27000000   100.34000000    52.57000000
   H     14.92000000    99.19000000    54.49000000
   H     13.69000000   100.28000000    56.10000000
   H     12.30000000   100.65000000    55.04000000
   H     13.90000000   102.26000000    53.74000000
   H     14.96000000   101.95000000    55.20000000
   N     12.35000000    97.37000000    54.12000000
   C     11.76000000    96.12000000    54.53000000
   H     10.78100000    96.01100000    54.06300000
   H     12.40300000    95.29600000    54.22200000
   H     11.64800000    96.10900000    55.61400000
   H     11.98000000    97.83000000    53.30000000
  Ca     11.60000000   105.04600000    57.02000000
   O     12.93000000   106.21600000    54.46000000
   H     13.41000000   105.45600000    54.79000000
   H     12.22000000   105.84600000    53.94000000
   O     13.53000000   107.00600000    57.48000000
   H     13.50000000   107.69600000    56.82000000
   H     13.61000000   107.46600000    58.31000000
   O     11.01000000   106.55600000    59.02000000
   H     10.11000000   106.80600000    59.26000000
   H     11.55000000   106.94600000    59.70000000

Ca 1.00



