%chk=loop4.apoCaM-CA-Ng.Init295.run88.water2.chk
%nprocshared=20
%mem=10GB
%nosave
#b3lyp/svp scf=(tight,noincore,xqc) Test 
#IOP(5/87=12) Density=Current Pop=(MK,readradii) iop(6/33=2) iop(6/42=6)

loop4.apoCaM-CA-Ng.Init295.run88.water2 

   -3  1 
   C    117.62000000   -28.18000000    48.00000000
   C    116.53000000   -29.05000000    47.40000000
   O    115.34000000   -28.80000000    47.57000000
   H    118.47800000   -28.15800000    47.32800000
   H    117.24200000   -27.16700000    48.13900000
   H    117.92400000   -28.59000000    48.96300000
   N    116.97000000   -30.00000000    46.57000000
   C    116.20000000   -30.89000000    45.72000000
   C    115.22000000   -30.12000000    44.84000000
   O    114.02000000   -30.11000000    45.09000000
   C    115.51000000   -31.92000000    46.61000000
   C    116.50000000   -32.82000000    47.33000000
   O    117.01000000   -32.46000000    48.41000000
   O    116.69000000   -33.91000000    46.74000000
   H    117.97000000   -30.07000000    46.45000000
   H    116.99000000   -31.36000000    45.14000000
   H    114.85000000   -32.53000000    45.99000000
   H    114.95000000   -31.43000000    47.40000000
   N    115.68000000   -29.48000000    43.77000000
   C    114.83000000   -28.77000000    42.84000000
   C    114.82000000   -29.39000000    41.45000000
   O    115.92000000   -29.51000000    40.90000000
   C    115.29000000   -27.31000000    42.81000000
   C    115.48000000   -26.50000000    44.09000000
   C    114.35000000   -26.54000000    41.88000000
   C    114.29000000   -26.29000000    45.02000000
   H    116.68000000   -29.55000000    43.60000000
   H    113.78000000   -28.71000000    43.14000000
   H    116.23000000   -27.34000000    42.27000000
   H    115.93000000   -25.56000000    43.79000000
   H    116.23000000   -26.95000000    44.74000000
   H    113.33000000   -26.78000000    42.15000000
   H    114.44000000   -25.45000000    41.85000000
   H    114.54000000   -26.93000000    40.88000000
   H    113.87000000   -27.26000000    45.29000000
   H    114.69000000   -25.90000000    45.96000000
   H    113.58000000   -25.60000000    44.56000000
   N    113.70000000   -29.68000000    40.79000000
   C    112.28000000   -29.48000000    40.98000000
   C    111.76000000   -30.37000000    42.10000000
   O    111.05000000   -29.86000000    42.96000000
   C    111.52000000   -29.88000000    39.72000000
   C    111.89000000   -29.18000000    38.42000000
   O    112.94000000   -29.53000000    37.83000000
   O    111.19000000   -28.22000000    38.02000000
   H    113.93000000   -30.24000000    39.97000000
   H    112.15000000   -28.45000000    41.31000000
   H    110.54000000   -29.47000000    39.93000000
   H    111.52000000   -30.95000000    39.55000000
   N    112.20000000   -31.63000000    42.18000000
   C    111.77000000   -32.54000000    43.21000000
   C    110.75000000   -33.61000000    42.84000000
   O    110.67000000   -33.99000000    41.67000000
   H    112.83000000   -31.99000000    41.47000000
   H    111.46000000   -32.02000000    44.12000000
   H    112.68000000   -33.00000000    43.60000000
   N    110.01000000   -34.15000000    43.81000000
   C    108.85000000   -35.01000000    43.65000000
   C    107.53000000   -34.39000000    44.08000000
   O    106.56000000   -35.08000000    44.40000000
   C    109.17000000   -36.36000000    44.28000000
   C    109.31000000   -36.37000000    45.79000000
   O    109.16000000   -37.46000000    46.38000000
   O    109.82000000   -35.33000000    46.27000000
   H    110.24000000   -34.00000000    44.78000000
   H    108.75000000   -35.13000000    42.57000000
   H    109.98000000   -36.85000000    43.74000000
   H    108.40000000   -37.09000000    44.01000000
   N    107.54000000   -33.08000000    44.32000000
   C    106.45000000   -32.33000000    44.90000000
   C    106.17000000   -32.50000000    46.39000000
   O    105.54000000   -31.63000000    46.99000000
   H    108.41000000   -32.57000000    44.29000000
   H    105.51000000   -32.51000000    44.38000000
   H    106.70000000   -31.28000000    44.83000000
   N    106.71000000   -33.55000000    47.03000000
   C    106.41000000   -33.97000000    48.38000000
   C    106.32000000   -32.88000000    49.45000000
   O    105.44000000   -32.84000000    50.31000000
   C    105.22000000   -34.92000000    48.43000000
   C    105.32000000   -36.06000000    47.43000000
   C    104.22000000   -37.11000000    47.45000000
   N    104.45000000   -38.31000000    46.91000000
   O    103.14000000   -36.87000000    47.99000000
   H    107.31000000   -34.18000000    46.52000000
   H    107.32000000   -34.47000000    48.71000000
   H    104.27000000   -34.38000000    48.39000000
   H    105.18000000   -35.39000000    49.42000000
   H    106.32000000   -36.47000000    47.58000000
   H    105.32000000   -35.64000000    46.42000000
   H    105.25000000   -38.51000000    46.33000000
   H    103.75000000   -39.03000000    47.05000000
   N    107.25000000   -31.93000000    49.46000000
   C    107.46000000   -30.91000000    50.47000000
   C    108.14000000   -31.40000000    51.74000000
   O    108.97000000   -32.30000000    51.70000000
   C    108.12000000   -29.65000000    49.93000000
   C    109.45000000   -30.05000000    49.30000000
   C    107.22000000   -28.93000000    48.94000000
   H    107.67000000   -31.77000000    48.56000000
   H    106.43000000   -30.63000000    50.70000000
   H    108.32000000   -28.98000000    50.77000000
   H    109.94000000   -29.13000000    48.97000000
   H    110.06000000   -30.56000000    50.05000000
   H    109.32000000   -30.65000000    48.40000000
   H    107.10000000   -29.53000000    48.04000000
   H    106.26000000   -28.74000000    49.41000000
   H    107.58000000   -27.94000000    48.65000000
   N    107.88000000   -30.63000000    52.80000000
   C    108.41000000   -30.78000000    54.14000000
   C    108.78000000   -29.45000000    54.79000000
   O    108.05000000   -28.48000000    54.60000000
   C    107.39000000   -31.57000000    54.95000000
   C    108.00000000   -32.08000000    56.25000000
   N    108.32000000   -33.37000000    56.35000000
   O    108.09000000   -31.26000000    57.16000000
   H    107.17000000   -29.92000000    52.75000000
   H    109.28000000   -31.41000000    54.00000000
   H    107.05000000   -32.46000000    54.41000000
   H    106.53000000   -30.99000000    55.30000000
   H    108.24000000   -34.02000000    55.58000000
   H    108.83000000   -33.67000000    57.17000000
   N    109.94000000   -29.41000000    55.45000000
   C    110.43000000   -28.27000000    56.20000000
   C    111.90000000   -28.50000000    56.52000000
   O    112.40000000   -28.09000000    57.57000000
   C    109.65000000   -27.85000000    57.44000000
   C    109.62000000   -26.36000000    57.66000000
   C    108.89000000   -25.56000000    56.77000000
   C    110.24000000   -25.81000000    58.79000000
   C    108.99000000   -24.17000000    56.84000000
   C    110.32000000   -24.41000000    58.86000000
   C    109.75000000   -23.58000000    57.87000000
   O    109.75000000   -22.22000000    57.98000000
   H    110.40000000   -30.31000000    55.41000000
   H    110.40000000   -27.42000000    55.52000000
   H    109.98000000   -28.38000000    58.33000000
   H    108.60000000   -28.13000000    57.29000000
   H    108.35000000   -26.08000000    55.99000000
   H    110.60000000   -26.41000000    59.61000000
   H    108.46000000   -23.57000000    56.11000000
   H    110.86000000   -23.86000000    59.61000000
   H    110.34000000   -21.89000000    58.66000000
   N    112.62000000   -29.34000000    55.77000000
   C    113.97000000   -29.76000000    56.04000000
   C    115.04000000   -28.68000000    56.02000000
   O    115.68000000   -28.54000000    57.06000000
   C    114.32000000   -30.94000000    55.14000000
   C    115.70000000   -31.58000000    55.30000000
   C    115.81000000   -32.89000000    54.54000000
   O    115.37000000   -33.88000000    55.15000000
   O    116.28000000   -32.92000000    53.38000000
   H    112.21000000   -29.61000000    54.88000000
   H    113.93000000   -30.15000000    57.06000000
   H    114.18000000   -30.74000000    54.08000000
   H    113.64000000   -31.72000000    55.49000000
   H    115.80000000   -31.81000000    56.36000000
   H    116.52000000   -30.88000000    55.12000000
   N    115.14000000   -27.72000000    55.09000000
   C    114.58000000   -27.62000000    53.76000000
   C    113.30000000   -26.79000000    53.79000000
   O    113.00000000   -26.19000000    54.81000000
   C    115.65000000   -27.03000000    52.85000000
   C    116.88000000   -27.90000000    52.63000000
   C    116.58000000   -29.37000000    52.37000000
   O    115.70000000   -29.63000000    51.52000000
   O    117.33000000   -30.29000000    52.77000000
   H    115.81000000   -26.99000000    55.30000000
   H    114.38000000   -28.61000000    53.34000000
   H    115.98000000   -26.07000000    53.26000000
   H    115.12000000   -26.85000000    51.91000000
   H    117.53000000   -27.84000000    53.50000000
   H    117.46000000   -27.46000000    51.82000000
   N    112.74000000   -26.54000000    52.60000000
   C    111.68000000   -25.60000000    52.27000000
   H    110.81900000   -25.78400000    52.91200000
   H    112.03600000   -24.58100000    52.42400000
   H    111.39000000   -25.73000000    51.22700000
   H    112.98000000   -27.19000000    51.87000000
  Ca    116.67300000   -31.98300000    50.97000000
   O    113.84300000   -32.65300000    51.22000000
   H    113.32300000   -32.78300000    52.01000000
   H    113.21300000   -32.34300000    50.56000000
   O    116.26300000   -34.57300000    50.87000000
   H    115.69300000   -34.89300000    51.57000000
   H    116.49300000   -35.35300000    50.37000000

Ca 1.00



