%chk=loop4.holoCaM-CaMKII.run89.water2.chk
%nprocshared=20
%mem=10GB
%nosave
#b3lyp/svp scf=(tight,noincore,xqc) Test 
#IOP(5/87=12) Density=Current Pop=(MK,readradii) iop(6/33=2) iop(6/42=6)

loop4.holoCaM-CaMKII.run89.water2 

   -3  1 
   C     53.94000000    16.16000000   100.84000000
   C     52.82000000    16.19000000   101.87000000
   O     52.74000000    17.17000000   102.61000000
   H     54.84200000    15.75100000   101.29600000
   H     53.64400000    15.53400000    99.99800000
   H     54.13900000    17.17300000   100.48900000
   N     51.99000000    15.15000000   101.99000000
   C     50.98000000    15.05000000   103.02000000
   C     51.59000000    14.68000000   104.36000000
   O     52.13000000    13.58000000   104.44000000
   C     49.90000000    14.05000000   102.60000000
   C     48.87000000    13.77000000   103.69000000
   O     48.56000000    14.65000000   104.52000000
   O     48.38000000    12.62000000   103.72000000
   H     51.99000000    14.35000000   101.37000000
   H     50.51000000    16.02000000   103.18000000
   H     50.29000000    13.12000000   102.19000000
   H     49.33000000    14.40000000   101.74000000
   N     51.34000000    15.43000000   105.43000000
   C     51.92000000    15.17000000   106.73000000
   C     50.95000000    14.59000000   107.74000000
   O     51.27000000    14.27000000   108.88000000
   C     52.76000000    16.35000000   107.20000000
   C     51.80000000    17.45000000   107.64000000
   C     53.73000000    16.88000000   106.14000000
   C     52.43000000    18.78000000   108.03000000
   H     50.77000000    16.25000000   105.23000000
   H     52.71000000    14.42000000   106.69000000
   H     53.34000000    16.04000000   108.07000000
   H     51.19000000    17.18000000   108.51000000
   H     51.13000000    17.72000000   106.82000000
   H     54.19000000    16.01000000   105.67000000
   H     53.21000000    17.35000000   105.30000000
   H     54.54000000    17.41000000   106.64000000
   H     53.11000000    19.18000000   107.28000000
   H     51.61000000    19.43000000   108.33000000
   H     53.08000000    18.58000000   108.88000000
   N     49.67000000    14.39000000   107.41000000
   C     48.66000000    13.98000000   108.37000000
   C     47.88000000    12.72000000   108.01000000
   O     47.38000000    12.08000000   108.93000000
   C     47.73000000    15.13000000   108.72000000
   C     47.11000000    15.85000000   107.53000000
   O     47.42000000    17.00000000   107.17000000
   O     46.37000000    15.22000000   106.74000000
   H     49.40000000    14.47000000   106.44000000
   H     49.07000000    13.70000000   109.33000000
   H     48.40000000    15.83000000   109.21000000
   H     46.90000000    14.78000000   109.33000000
   N     47.66000000    12.45000000   106.72000000
   C     47.22000000    11.16000000   106.21000000
   C     45.99000000    11.24000000   105.31000000
   O     45.47000000    10.17000000   105.01000000
   H     47.82000000    13.17000000   106.04000000
   H     46.94000000    10.53000000   107.04000000
   H     47.94000000    10.77000000   105.50000000
   N     45.55000000    12.41000000   104.84000000
   C     44.36000000    12.57000000   104.02000000
   C     44.51000000    12.56000000   102.50000000
   O     43.53000000    12.75000000   101.79000000
   C     43.56000000    13.72000000   104.60000000
   C     43.93000000    15.11000000   104.11000000
   O     43.02000000    15.96000000   103.98000000
   O     45.08000000    15.33000000   103.66000000
   H     46.14000000    13.19000000   105.08000000
   H     43.79000000    11.67000000   104.23000000
   H     43.57000000    13.77000000   105.69000000
   H     42.53000000    13.71000000   104.24000000
   N     45.74000000    12.42000000   102.00000000
   C     46.04000000    12.28000000   100.58000000
   C     46.07000000    13.61000000    99.85000000
   O     45.93000000    13.54000000    98.63000000
   H     46.53000000    12.36000000   102.62000000
   H     45.27000000    11.67000000   100.10000000
   H     46.96000000    11.71000000   100.62000000
   N     45.93000000    14.76000000   100.52000000
   C     45.85000000    16.10000000    99.97000000
   C     46.89000000    16.96000000   100.66000000
   O     47.26000000    16.81000000   101.82000000
   C     44.42000000    16.62000000   100.12000000
   C     43.45000000    15.81000000    99.26000000
   C     42.18000000    16.57000000    98.92000000
   N     41.06000000    16.18000000    99.55000000
   O     42.23000000    17.63000000    98.29000000
   H     45.79000000    14.69000000   101.51000000
   H     46.21000000    16.11000000    98.94000000
   H     44.43000000    17.65000000    99.76000000
   H     44.13000000    16.59000000   101.17000000
   H     43.25000000    14.82000000    99.66000000
   H     43.87000000    15.76000000    98.25000000
   H     41.18000000    15.43000000   100.21000000
   H     40.16000000    16.53000000    99.27000000
   N     47.26000000    18.02000000    99.93000000
   C     48.31000000    18.98000000   100.21000000
   C     47.67000000    20.35000000   100.32000000
   O     47.12000000    20.89000000    99.37000000
   C     49.49000000    18.99000000    99.24000000
   C     50.64000000    19.66000000    99.99000000
   C     49.99000000    17.61000000    98.85000000
   H     46.70000000    18.12000000    99.10000000
   H     48.71000000    18.69000000   101.18000000
   H     49.32000000    19.67000000    98.40000000
   H     51.47000000    19.73000000    99.28000000
   H     50.35000000    20.69000000   100.14000000
   H     50.92000000    19.11000000   100.89000000
   H     49.23000000    17.07000000    98.29000000
   H     50.77000000    17.67000000    98.08000000
   H     50.26000000    17.05000000    99.74000000
   N     47.57000000    20.81000000   101.57000000
   C     47.22000000    22.17000000   101.92000000
   C     48.34000000    23.19000000   101.79000000
   O     49.50000000    22.77000000   101.79000000
   C     46.68000000    22.14000000   103.34000000
   C     46.06000000    23.44000000   103.84000000
   N     45.35000000    24.24000000   103.04000000
   O     46.51000000    23.94000000   104.87000000
   H     48.02000000    20.25000000   102.28000000
   H     46.38000000    22.42000000   101.26000000
   H     47.49000000    21.82000000   103.99000000
   H     45.99000000    21.32000000   103.53000000
   H     44.93000000    23.88000000   102.19000000
   H     44.73000000    24.94000000   103.42000000
   N     48.07000000    24.50000000   101.81000000
   C     48.97000000    25.63000000   101.88000000
   C     50.12000000    25.51000000   102.87000000
   O     51.28000000    25.43000000   102.49000000
   C     48.18000000    26.94000000   101.92000000
   C     49.14000000    28.08000000   102.17000000
   C     49.86000000    28.61000000   101.09000000
   C     49.56000000    28.43000000   103.45000000
   C     50.93000000    29.49000000   101.31000000
   C     50.66000000    29.28000000   103.64000000
   C     51.33000000    29.93000000   102.59000000
   O     52.28000000    30.90000000   102.69000000
   H     47.09000000    24.74000000   101.88000000
   H     49.43000000    25.65000000   100.89000000
   H     47.55000000    26.86000000   102.80000000
   H     47.58000000    27.17000000   101.04000000
   H     49.71000000    28.33000000   100.06000000
   H     49.16000000    27.95000000   104.33000000
   H     51.38000000    29.89000000   100.41000000
   H     50.96000000    29.47000000   104.66000000
   H     52.28000000    31.18000000   103.61000000
   N     49.80000000    25.24000000   104.14000000
   C     50.75000000    24.89000000   105.18000000
   C     51.77000000    23.86000000   104.74000000
   O     52.99000000    23.94000000   104.85000000
   C     49.90000000    24.35000000   106.33000000
   C     50.63000000    24.11000000   107.65000000
   C     51.25000000    25.36000000   108.26000000
   O     50.60000000    26.27000000   108.82000000
   O     52.49000000    25.43000000   108.21000000
   H     48.82000000    25.23000000   104.37000000
   H     51.35000000    25.76000000   105.45000000
   H     49.34000000    23.45000000   106.08000000
   H     49.17000000    25.13000000   106.52000000
   H     51.41000000    23.35000000   107.55000000
   H     49.94000000    23.70000000   108.38000000
   N     51.28000000    22.72000000   104.25000000
   C     52.03000000    21.52000000   103.93000000
   C     52.88000000    21.82000000   102.71000000
   O     54.03000000    21.39000000   102.64000000
   C     51.09000000    20.34000000   103.66000000
   C     50.25000000    19.96000000   104.87000000
   C     49.21000000    18.89000000   104.56000000
   O     49.47000000    17.67000000   104.70000000
   O     48.11000000    19.20000000   104.06000000
   H     50.29000000    22.61000000   104.10000000
   H     52.73000000    21.25000000   104.72000000
   H     51.66000000    19.47000000   103.32000000
   H     50.42000000    20.74000000   102.90000000
   H     49.86000000    20.91000000   105.24000000
   H     50.97000000    19.51000000   105.56000000
   N     52.42000000    22.53000000   101.67000000
   C     53.15000000    23.01000000   100.51000000
   H     54.14600000    22.56600000   100.49900000
   H     52.61700000    22.72800000    99.60200000
   H     53.23700000    24.09500000   100.55800000
   H     51.43000000    22.71000000   101.73000000
  Ca     47.01000000    16.88000000   104.58200000
   O     44.87000000    18.04000000   103.45200000
   H     44.56000000    17.17000000   103.19200000
   H     44.09000000    18.47000000   103.82200000
   O     45.46000000    18.94000000   106.46200000
   H     45.39000000    19.89000000   106.43200000
   H     46.02000000    18.76000000   107.21200000

Ca 1.00



