%chk=loop2.apoCaM-CA-Ng.Init295.run60.water4.chk
%nprocshared=20
%mem=10GB
%nosave
#b3lyp/svp scf=(tight,noincore,xqc) Test 
#IOP(5/87=12) Density=Current Pop=(MK,readradii) iop(6/33=2) iop(6/42=6)

loop2.apoCaM-CA-Ng.Init295.run60.water4 

   -2  1 
   C     79.30000000    83.82000000    43.72000000
   C     79.94000000    83.55000000    45.07000000
   O     79.92000000    84.40000000    45.97000000
   H     78.40600000    84.42800000    43.85700000
   H     80.00600000    84.35200000    43.08200000
   H     79.02700000    82.87500000    43.25100000
   N     80.54000000    82.37000000    45.21000000
   C     81.36000000    81.95000000    46.33000000
   C     80.58000000    81.64000000    47.60000000
   O     81.03000000    80.82000000    48.40000000
   C     82.42000000    80.93000000    45.92000000
   C     83.68000000    80.80000000    46.77000000
   O     84.45000000    79.87000000    46.45000000
   O     83.83000000    81.54000000    47.76000000
   H     80.54000000    81.73000000    44.42000000
   H     81.82000000    82.90000000    46.56000000
   H     82.81000000    81.15000000    44.92000000
   H     81.96000000    79.95000000    45.99000000
   N     79.34000000    82.13000000    47.73000000
   C     78.45000000    82.01000000    48.86000000
   C     76.98000000    82.00000000    48.45000000
   O     76.66000000    82.68000000    47.48000000
   C     78.77000000    83.10000000    49.88000000
   H     78.97000000    82.68000000    46.97000000
   H     78.70000000    81.05000000    49.32000000
   H     78.71000000    84.06000000    49.37000000
   H     78.04000000    83.10000000    50.70000000
   H     79.76000000    82.93000000    50.29000000
   N     76.02000000    81.50000000    49.23000000
   C     76.07000000    80.91000000    50.55000000
   C     76.51000000    79.46000000    50.68000000
   O     76.23000000    78.66000000    49.78000000
   C     74.79000000    81.13000000    51.35000000
   C     74.38000000    82.59000000    51.19000000
   O     75.04000000    83.31000000    51.97000000
   O     73.49000000    82.97000000    50.40000000
   H     75.08000000    81.71000000    48.94000000
   H     76.83000000    81.49000000    51.07000000
   H     74.94000000    80.78000000    52.38000000
   H     74.00000000    80.53000000    50.91000000
   N     77.15000000    78.97000000    51.75000000
   C     77.63000000    77.61000000    51.81000000
   C     79.01000000    77.50000000    51.19000000
   O     79.72000000    78.49000000    51.00000000
   H     77.47000000    79.60000000    52.47000000
   H     76.89000000    76.90000000    51.42000000
   H     77.72000000    77.18000000    52.81000000
   N     79.52000000    76.33000000    50.78000000
   C     78.96000000    75.00000000    50.78000000
   C     77.72000000    74.74000000    49.94000000
   O     77.08000000    73.72000000    50.16000000
   C     80.05000000    74.04000000    50.31000000
   C     79.65000000    72.58000000    50.44000000
   N     79.68000000    72.06000000    51.67000000
   O     79.34000000    71.88000000    49.47000000
   H     80.45000000    76.36000000    50.40000000
   H     78.64000000    74.59000000    51.74000000
   H     80.96000000    74.15000000    50.89000000
   H     80.29000000    74.27000000    49.27000000
   H     79.81000000    72.82000000    52.32000000
   H     79.26000000    71.17000000    51.88000000
   N     77.23000000    75.73000000    49.18000000
   C     76.07000000    75.57000000    48.33000000
   C     74.72000000    75.58000000    49.04000000
   O     73.79000000    74.80000000    48.86000000
   H     77.75000000    76.59000000    49.22000000
   H     76.20000000    74.58000000    47.89000000
   H     76.14000000    76.25000000    47.48000000
   N     74.65000000    76.45000000    50.04000000
   C     73.43000000    76.62000000    50.80000000
   C     72.50000000    77.73000000    50.33000000
   O     71.92000000    78.49000000    51.11000000
   C     73.70000000    76.77000000    52.30000000
   C     72.50000000    76.29000000    53.11000000
   O     74.82000000    76.04000000    52.74000000
   H     75.48000000    77.01000000    50.17000000
   H     72.78000000    75.75000000    50.69000000
   H     73.86000000    77.82000000    52.52000000
   H     75.26000000    76.45000000    53.49000000
   H     72.49000000    75.22000000    53.28000000
   H     72.59000000    76.69000000    54.12000000
   H     71.62000000    76.67000000    52.59000000
   N     72.44000000    77.96000000    49.02000000
   C     71.86000000    79.12000000    48.37000000
   C     70.35000000    78.99000000    48.39000000
   O     69.78000000    77.93000000    48.64000000
   C     72.48000000    79.27000000    46.98000000
   C     73.91000000    79.78000000    47.11000000
   C     72.33000000    78.01000000    46.13000000
   C     74.70000000    80.11000000    45.85000000
   H     72.82000000    77.23000000    48.43000000
   H     72.07000000    80.03000000    48.93000000
   H     72.02000000    80.11000000    46.45000000
   H     74.46000000    79.08000000    47.74000000
   H     73.92000000    80.63000000    47.80000000
   H     73.08000000    77.26000000    46.40000000
   H     71.39000000    77.46000000    46.22000000
   H     72.42000000    78.30000000    45.09000000
   H     75.72000000    80.31000000    46.16000000
   H     74.82000000    79.29000000    45.14000000
   H     74.21000000    80.93000000    45.33000000
   N     69.60000000    80.09000000    48.28000000
   C     68.17000000    80.05000000    48.03000000
   C     67.64000000    79.93000000    46.61000000
   O     68.48000000    79.85000000    45.72000000
   C     67.67000000    81.29000000    48.76000000
   C     68.17000000    81.41000000    50.19000000
   O     68.18000000    80.45000000    50.99000000
   O     68.76000000    82.47000000    50.52000000
   H     70.10000000    80.95000000    48.05000000
   H     67.69000000    79.21000000    48.52000000
   H     66.58000000    81.22000000    48.84000000
   H     67.92000000    82.21000000    48.23000000
   N     66.33000000    79.78000000    46.43000000
   C     65.58000000    79.47000000    45.23000000
   C     65.94000000    80.31000000    44.01000000
   O     66.87000000    80.06000000    43.24000000
   C     65.81000000    78.00000000    44.92000000
   C     64.86000000    77.40000000    43.92000000
   C     65.15000000    77.38000000    42.55000000
   C     63.59000000    77.04000000    44.39000000
   C     64.23000000    76.79000000    41.68000000
   C     62.59000000    76.60000000    43.50000000
   C     62.99000000    76.39000000    42.18000000
   H     65.93000000    79.63000000    47.34000000
   H     64.54000000    79.58000000    45.54000000
   H     65.75000000    77.45000000    45.87000000
   H     66.84000000    77.84000000    44.61000000
   H     66.07000000    77.78000000    42.15000000
   H     63.35000000    77.14000000    45.44000000
   H     64.42000000    76.77000000    40.61000000
   H     61.62000000    76.32000000    43.88000000
   H     62.30000000    76.00000000    41.44000000
   N     65.36000000    81.49000000    43.83000000
   C     65.79000000    82.43000000    42.82000000
   C     67.26000000    82.83000000    42.88000000
   O     67.82000000    83.14000000    41.83000000
   C     64.98000000    83.68000000    43.15000000
   C     63.65000000    83.12000000    43.64000000
   C     64.21000000    82.03000000    44.54000000
   H     65.57000000    82.05000000    41.82000000
   H     65.43000000    84.26000000    43.96000000
   H     64.85000000    84.37000000    42.31000000
   H     63.00000000    83.81000000    44.19000000
   H     63.06000000    82.66000000    42.85000000
   H     64.43000000    82.50000000    45.50000000
   H     63.47000000    81.26000000    44.72000000
   N     67.98000000    82.68000000    43.99000000
   C     69.40000000    82.89000000    44.14000000
   C     70.33000000    81.82000000    43.57000000
   O     71.41000000    82.21000000    43.12000000
   C     69.65000000    83.16000000    45.62000000
   C     71.10000000    83.21000000    46.09000000
   C     71.05000000    83.42000000    47.60000000
   O     71.36000000    82.46000000    48.34000000
   O     70.83000000    84.57000000    48.04000000
   H     67.41000000    82.45000000    44.80000000
   H     69.53000000    83.74000000    43.47000000
   H     69.06000000    82.44000000    46.18000000
   H     69.21000000    84.15000000    45.70000000
   H     71.53000000    84.08000000    45.59000000
   H     71.64000000    82.33000000    45.74000000
   N     69.82000000    80.62000000    43.31000000
   C     70.26000000    79.60000000    42.38000000
   H     71.26800000    79.27900000    42.64400000
   H     69.58300000    78.74700000    42.42900000
   H     70.26100000    80.00600000    41.36800000
   H     68.95000000    80.44000000    43.80000000
  Ca     70.98000000    83.79000000    50.70000000
   O     71.07000000    81.11000000    51.56000000
   H     70.12000000    81.00000000    51.43000000
   H     71.44000000    80.28000000    51.28000000
   O     71.86000000    86.25000000    50.47000000
   H     72.75000000    86.59000000    50.53000000
   H     71.32000000    87.00000000    50.23000000
   O     72.91000000    84.79000000    52.72000000
   H     73.39000000    85.62000000    52.81000000
   H     73.58000000    84.15000000    52.49000000
   O     69.03000000    85.83000000    50.82000000
   H     69.17000000    86.66000000    51.27000000
   H     68.39000000    86.02000000    50.13000000

Ca 1.00



