%chk=loop4.holoCaM-CaMKII.run66.water2.chk
%nprocshared=20
%mem=10GB
%nosave
#b3lyp/svp scf=(tight,noincore,xqc) Test 
#IOP(5/87=12) Density=Current Pop=(MK,readradii) iop(6/33=2) iop(6/42=6)

loop4.holoCaM-CaMKII.run66.water2 

   -3  1 
   C     40.44000000    43.33000000    95.79900000
   C     40.62000000    42.06000000    94.97900000
   O     39.92000000    41.09000000    95.24900000
   H     39.41800000    43.37700000    96.17500000
   H     41.13500000    43.32300000    96.63800000
   H     40.63600000    44.19900000    95.17100000
   N     41.50000000    41.91000000    93.98900000
   C     41.70000000    40.73000000    93.16900000
   C     42.61000000    39.72000000    93.86900000
   O     43.73000000    40.04000000    94.26900000
   C     42.13000000    41.25000000    91.79900000
   C     42.57000000    40.13000000    90.85900000
   O     43.32000000    40.51000000    89.92900000
   O     42.23000000    38.95000000    91.07900000
   H     42.00000000    42.69000000    93.59900000
   H     40.75000000    40.21000000    93.01900000
   H     42.99000000    41.90000000    91.95900000
   H     41.34000000    41.73000000    91.22900000
   N     42.06000000    38.55000000    94.19900000
   C     42.74000000    37.54000000    94.97900000
   C     43.62000000    36.53000000    94.25900000
   O     44.60000000    36.05000000    94.83900000
   C     41.87000000    36.84000000    96.01900000
   C     41.03000000    35.78000000    95.30900000
   C     41.13000000    37.84000000    96.89900000
   C     39.95000000    35.06000000    96.09900000
   H     41.20000000    38.22000000    93.78900000
   H     43.46000000    38.01000000    95.64900000
   H     42.55000000    36.32000000    96.69900000
   H     41.55000000    35.03000000    94.71900000
   H     40.37000000    36.30000000    94.60900000
   H     41.86000000    38.47000000    97.39900000
   H     40.47000000    38.40000000    96.23900000
   H     40.54000000    37.31000000    97.64900000
   H     39.89000000    34.05000000    95.68900000
   H     40.35000000    35.01000000    97.11900000
   H     38.98000000    35.53000000    95.94900000
   N     43.26000000    36.26000000    92.99900000
   C     43.87000000    35.21000000    92.19900000
   C     44.72000000    35.77000000    91.06900000
   O     45.38000000    35.02000000    90.35900000
   C     42.87000000    34.13000000    91.79900000
   C     41.59000000    34.63000000    91.15900000
   O     41.45000000    35.84000000    90.84900000
   O     40.68000000    33.79000000    90.96900000
   H     42.45000000    36.73000000    92.64900000
   H     44.48000000    34.56000000    92.81900000
   H     42.57000000    33.66000000    92.73900000
   H     43.38000000    33.36000000    91.21900000
   N     44.79000000    37.10000000    90.93900000
   C     45.64000000    37.77000000    89.97900000
   C     45.28000000    37.71000000    88.49900000
   O     46.00000000    37.09000000    87.72900000
   H     44.23000000    37.67000000    91.55900000
   H     46.63000000    37.33000000    90.03900000
   H     45.66000000    38.81000000    90.28900000
   N     44.15000000    38.27000000    88.06900000
   C     43.77000000    38.35000000    86.66900000
   C     43.32000000    39.73000000    86.19900000
   O     42.84000000    39.86000000    85.06900000
   C     42.64000000    37.38000000    86.34900000
   C     41.47000000    37.34000000    87.32900000
   O     40.85000000    38.37000000    87.66900000
   O     41.28000000    36.27000000    87.94900000
   H     43.74000000    38.87000000    88.76900000
   H     44.58000000    38.06000000    86.00900000
   H     43.06000000    36.38000000    86.38900000
   H     42.17000000    37.50000000    85.36900000
   N     43.25000000    40.75000000    87.04900000
   C     42.73000000    42.08000000    86.76900000
   C     41.23000000    42.20000000    86.59900000
   O     40.70000000    43.07000000    85.91900000
   H     43.54000000    40.58000000    87.99900000
   H     43.23000000    42.44000000    85.86900000
   H     43.06000000    42.68000000    87.61900000
   N     40.47000000    41.23000000    87.12900000
   C     39.04000000    41.34000000    87.33900000
   C     38.69000000    40.99000000    88.77900000
   O     39.24000000    40.06000000    89.35900000
   C     38.23000000    40.51000000    86.34900000
   C     38.28000000    41.00000000    84.89900000
   C     37.29000000    40.23000000    84.03900000
   N     37.28000000    38.90000000    84.09900000
   O     36.55000000    40.88000000    83.30900000
   H     40.90000000    40.42000000    87.54900000
   H     38.76000000    42.39000000    87.20900000
   H     37.19000000    40.54000000    86.68900000
   H     38.65000000    39.51000000    86.32900000
   H     39.31000000    40.86000000    84.57900000
   H     38.00000000    42.05000000    84.84900000
   H     37.87000000    38.46000000    84.78900000
   H     36.59000000    38.38000000    83.56900000
   N     37.72000000    41.69000000    89.36900000
   C     37.02000000    41.33000000    90.57900000
   C     35.68000000    40.74000000    90.14900000
   O     34.94000000    41.41000000    89.43900000
   C     36.72000000    42.54000000    91.44900000
   C     35.88000000    42.31000000    92.70900000
   C     38.02000000    43.15000000    91.97900000
   H     37.32000000    42.45000000    88.84900000
   H     37.56000000    40.63000000    91.22900000
   H     36.20000000    43.28000000    90.83900000
   H     36.38000000    41.62000000    93.37900000
   H     35.78000000    43.20000000    93.32900000
   H     34.93000000    41.85000000    92.44900000
   H     37.80000000    44.10000000    92.45900000
   H     38.47000000    42.41000000    92.63900000
   H     38.66000000    43.44000000    91.13900000
   N     35.36000000    39.52000000    90.59900000
   C     34.12000000    38.78000000    90.45900000
   C     33.26000000    38.92000000    91.70900000
   O     33.73000000    39.51000000    92.67900000
   C     34.51000000    37.35000000    90.09900000
   C     34.73000000    36.46000000    91.30900000
   N     35.96000000    36.38000000    91.80900000
   O     33.86000000    35.65000000    91.61900000
   H     36.03000000    39.00000000    91.13900000
   H     33.53000000    39.16000000    89.62900000
   H     35.41000000    37.32000000    89.48900000
   H     33.76000000    36.83000000    89.49900000
   H     36.60000000    37.14000000    91.59900000
   H     36.08000000    35.70000000    92.54900000
   N     32.00000000    38.48000000    91.79900000
   C     31.17000000    38.57000000    92.98900000
   C     31.80000000    38.00000000    94.24900000
   O     31.71000000    38.68000000    95.26900000
   C     29.82000000    37.91000000    92.69900000
   C     28.75000000    38.22000000    93.70900000
   C     28.03000000    39.42000000    93.64900000
   C     28.63000000    37.42000000    94.84900000
   C     27.15000000    39.77000000    94.68900000
   C     27.62000000    37.66000000    95.77900000
   C     26.97000000    38.91000000    95.78900000
   O     26.21000000    39.32000000    96.84900000
   H     31.65000000    37.89000000    91.06900000
   H     31.08000000    39.63000000    93.19900000
   H     29.77000000    36.83000000    92.53900000
   H     29.45000000    38.26000000    91.73900000
   H     28.10000000    39.99000000    92.73900000
   H     29.24000000    36.53000000    94.94900000
   H     26.60000000    40.69000000    94.58900000
   H     27.46000000    37.00000000    96.61900000
   H     26.11000000    38.66000000    97.53900000
   N     32.53000000    36.88000000    94.20900000
   C     33.17000000    36.25000000    95.34900000
   C     34.16000000    37.19000000    96.02900000
   O     34.18000000    37.38000000    97.24900000
   C     33.78000000    34.91000000    94.94900000
   C     34.34000000    34.20000000    96.17900000
   C     34.55000000    32.71000000    95.91900000
   O     35.60000000    32.34000000    95.34900000
   O     33.61000000    31.96000000    96.21900000
   H     32.43000000    36.31000000    93.37900000
   H     32.38000000    35.99000000    96.04900000
   H     34.50000000    35.09000000    94.15900000
   H     32.97000000    34.30000000    94.56900000
   H     33.68000000    34.44000000    97.00900000
   H     35.28000000    34.73000000    96.32900000
   N     35.01000000    37.85000000    95.24900000
   C     36.06000000    38.73000000    95.72900000
   C     35.50000000    40.07000000    96.16900000
   O     36.09000000    40.71000000    97.03900000
   C     37.00000000    39.00000000    94.54900000
   C     37.85000000    37.81000000    94.12900000
   C     38.55000000    37.98000000    92.78900000
   O     39.77000000    37.75000000    92.71900000
   O     37.99000000    38.45000000    91.77900000
   H     35.07000000    37.59000000    94.26900000
   H     36.58000000    38.29000000    96.57900000
   H     37.66000000    39.82000000    94.79900000
   H     36.40000000    39.42000000    93.73900000
   H     37.23000000    36.91000000    94.08900000
   H     38.61000000    37.66000000    94.89900000
   N     34.36000000    40.54000000    95.65900000
   C     33.81000000    41.79000000    96.12900000
   H     32.82500000    41.61300000    96.56000000
   H     34.46700000    42.21400000    96.88800000
   H     33.72100000    42.48500000    95.29400000
   H     33.90000000    40.01000000    94.92900000
  Ca     40.04000000    37.71000000    90.07000000
   O     38.07000000    37.28000000    88.25000000
   H     38.46000000    37.42000000    87.39000000
   H     37.90000000    36.34000000    88.28000000
   O     38.34000000    35.29000000    90.44000000
   H     39.10000000    34.89000000    90.87000000
   H     37.81000000    34.55000000    90.15000000

Ca 1.00



