%chk=loop2.holoCaM.run33.water1.chk
%nprocshared=20
%mem=10GB
%nosave
#b3lyp/svp scf=(tight,noincore,xqc) Test 
#IOP(5/87=12) Density=Current Pop=(MK,readradii) iop(6/33=2) iop(6/42=6)

loop2.holoCaM.run33.water1 

   -2  1 
   C     74.96000000    77.32000000    17.67700000
   C     75.37000000    78.69000000    18.21700000
   O     76.39000000    79.27000000    17.85700000
   H     74.04000000    77.41800000    17.10000000
   H     75.75000000    76.93000000    17.03600000
   H     74.79600000    76.63500000    18.50900000
   N     74.59000000    79.15000000    19.19700000
   C     74.90000000    80.38000000    19.89700000
   C     76.12000000    80.13000000    20.76700000
   O     76.04000000    79.69000000    21.91700000
   C     73.68000000    80.75000000    20.73700000
   C     73.87000000    82.14000000    21.31700000
   O     74.60000000    82.94000000    20.68700000
   O     73.32000000    82.41000000    22.40700000
   H     73.82000000    78.56000000    19.50700000
   H     75.11000000    81.20000000    19.19700000
   H     73.59000000    79.96000000    21.47700000
   H     72.86000000    80.80000000    20.01700000
   N     77.25000000    80.62000000    20.26700000
   C     78.55000000    80.50000000    20.90700000
   C     78.87000000    81.64000000    21.85700000
   O     80.01000000    81.64000000    22.30700000
   C     79.56000000    80.14000000    19.82700000
   H     77.25000000    81.02000000    19.33700000
   H     78.54000000    79.64000000    21.57700000
   H     79.63000000    80.88000000    19.02700000
   H     80.56000000    80.16000000    20.26700000
   H     79.30000000    79.16000000    19.41700000
   N     77.97000000    82.58000000    22.17700000
   C     78.14000000    83.43000000    23.33700000
   C     76.91000000    83.55000000    24.23700000
   O     76.85000000    84.48000000    25.03700000
   C     78.79000000    84.76000000    22.97700000
   C     78.04000000    85.60000000    21.95700000
   O     76.91000000    85.19000000    21.61700000
   O     78.56000000    86.57000000    21.37700000
   H     77.08000000    82.67000000    21.71700000
   H     78.83000000    82.96000000    24.03700000
   H     79.77000000    84.49000000    22.57700000
   H     79.08000000    85.26000000    23.89700000
   N     75.91000000    82.69000000    24.10700000
   C     74.85000000    82.52000000    25.08700000
   C     73.95000000    83.73000000    25.27700000
   O     73.35000000    83.79000000    26.34700000
   H     75.80000000    82.10000000    23.29700000
   H     75.21000000    82.13000000    26.03700000
   H     74.18000000    81.75000000    24.70700000
   N     73.81000000    84.67000000    24.33700000
   C     72.89000000    85.79000000    24.36700000
   C     71.49000000    85.57000000    23.79700000
   O     70.71000000    86.52000000    23.73700000
   C     73.50000000    87.04000000    23.75700000
   C     74.36000000    86.74000000    22.53700000
   N     75.47000000    87.48000000    22.44700000
   O     74.08000000    85.93000000    21.65700000
   H     74.32000000    84.54000000    23.47700000
   H     72.73000000    86.00000000    25.42700000
   H     74.08000000    87.65000000    24.44700000
   H     72.73000000    87.80000000    23.57700000
   H     75.86000000    88.05000000    23.18700000
   H     76.17000000    87.12000000    21.81700000
   N     71.16000000    84.37000000    23.30700000
   C     69.84000000    84.01000000    22.82700000
   C     69.62000000    84.55000000    21.41700000
   O     68.45000000    84.70000000    21.06700000
   H     71.96000000    83.77000000    23.17700000
   H     69.11000000    84.49000000    23.48700000
   H     69.74000000    82.93000000    22.78700000
   N     70.70000000    84.87000000    20.70700000
   C     70.62000000    85.36000000    19.34700000
   C     71.72000000    84.90000000    18.41700000
   O     72.77000000    84.44000000    18.87700000
   C     70.51000000    86.88000000    19.29700000
   C     69.18000000    87.44000000    19.79700000
   O     71.51000000    87.56000000    20.01700000
   H     71.59000000    84.68000000    21.15700000
   H     69.71000000    84.96000000    18.89700000
   H     70.54000000    87.11000000    18.22700000
   H     72.35000000    87.34000000    19.61700000
   H     69.17000000    87.54000000    20.88700000
   H     69.08000000    88.49000000    19.50700000
   H     68.29000000    86.85000000    19.57700000
   N     71.61000000    85.06000000    17.09700000
   C     72.53000000    84.47000000    16.13700000
   C     73.24000000    85.60000000    15.41700000
   O     72.63000000    86.44000000    14.75700000
   C     71.82000000    83.48000000    15.20700000
   C     71.10000000    82.34000000    15.92700000
   C     72.94000000    82.89000000    14.36700000
   C     69.99000000    81.73000000    15.07700000
   H     70.80000000    85.52000000    16.70700000
   H     73.35000000    83.94000000    16.61700000
   H     71.04000000    83.96000000    14.61700000
   H     70.73000000    82.62000000    16.91700000
   H     71.77000000    81.53000000    16.19700000
   H     73.18000000    83.54000000    13.52700000
   H     73.90000000    82.80000000    14.87700000
   H     72.72000000    81.90000000    13.96700000
   H     69.29000000    82.53000000    14.85700000
   H     70.46000000    81.37000000    14.15700000
   H     69.52000000    80.90000000    15.60700000
   N     74.57000000    85.60000000    15.56700000
   C     75.56000000    86.32000000    14.78700000
   C     75.94000000    85.57000000    13.51700000
   O     75.49000000    84.44000000    13.32700000
   C     76.81000000    86.44000000    15.65700000
   C     76.49000000    87.02000000    17.02700000
   O     76.76000000    86.47000000    18.10700000
   O     75.82000000    88.08000000    17.04700000
   H     74.90000000    84.91000000    16.23700000
   H     75.29000000    87.36000000    14.65700000
   H     77.55000000    87.09000000    15.21700000
   H     77.21000000    85.43000000    15.79700000
   N     76.70000000    86.18000000    12.61700000
   C     77.11000000    85.63000000    11.33700000
   C     78.00000000    84.41000000    11.53700000
   O     77.74000000    83.38000000    10.91700000
   C     77.68000000    86.67000000    10.36700000
   C     77.95000000    86.14000000     8.98700000
   C     76.99000000    85.50000000     8.19700000
   C     79.28000000    86.08000000     8.53700000
   C     77.32000000    84.91000000     6.96700000
   C     79.62000000    85.70000000     7.23700000
   C     78.63000000    85.07000000     6.47700000
   H     77.06000000    87.11000000    12.77700000
   H     76.26000000    85.08000000    10.94700000
   H     78.52000000    87.23000000    10.77700000
   H     76.97000000    87.50000000    10.35700000
   H     75.98000000    85.50000000     8.55700000
   H     80.05000000    86.47000000     9.19700000
   H     76.52000000    84.49000000     6.37700000
   H     80.62000000    85.69000000     6.81700000
   H     78.92000000    84.62000000     5.53700000
   N     79.00000000    84.39000000    12.42700000
   C     79.78000000    83.20000000    12.64700000
   C     79.08000000    81.93000000    13.10700000
   O     79.25000000    80.80000000    12.63700000
   C     80.78000000    83.60000000    13.73700000
   C     81.04000000    85.05000000    13.34700000
   C     79.62000000    85.53000000    13.07700000
   H     80.26000000    82.84000000    11.73700000
   H     80.28000000    83.51000000    14.69700000
   H     81.73000000    83.06000000    13.78700000
   H     81.41000000    85.74000000    14.10700000
   H     81.49000000    85.18000000    12.36700000
   H     79.17000000    85.71000000    14.05700000
   H     79.50000000    86.48000000    12.57700000
   N     78.09000000    82.15000000    13.97700000
   C     77.09000000    81.20000000    14.41700000
   C     76.09000000    80.79000000    13.33700000
   O     75.75000000    79.61000000    13.26700000
   C     76.38000000    81.87000000    15.58700000
   C     77.33000000    82.28000000    16.70700000
   C     76.58000000    83.12000000    17.72700000
   O     75.61000000    83.85000000    17.40700000
   O     77.03000000    83.14000000    18.89700000
   H     78.07000000    83.05000000    14.44700000
   H     77.57000000    80.27000000    14.71700000
   H     75.68000000    81.11000000    15.94700000
   H     75.90000000    82.76000000    15.18700000
   H     78.23000000    82.85000000    16.46700000
   H     77.66000000    81.40000000    17.26700000
   N     75.65000000    81.73000000    12.49700000
   C     74.88000000    81.44000000    11.30700000
   H     73.98300000    82.05900000    11.29500000
   H     75.48100000    81.65500000    10.42300000
   H     74.59400000    80.38800000    11.30600000
   H     75.69000000    82.70000000    12.77700000
  Ca     75.30000000    85.02000000    19.56000000
   O     74.08000000    87.43000000    18.97000000
   H     74.58000000    87.60000000    18.17000000
   H     73.84000000    88.30000000    19.29000000

Ca 1.00



