%chk=loop1.apoCaM-CA-Ng.Init293.run81.water5.chk
%nprocshared=20
%mem=10GB
%nosave
#b3lyp/svp scf=(tight,noincore,xqc) Test 
#IOP(5/87=12) Density=Current Pop=(MK,readradii) iop(6/33=2) iop(6/42=6)

loop1.apoCaM-CA-Ng.Init293.run81.water5 

   0  1 
   C     79.84000000    93.80000000    34.35000000
   C     81.00000000    93.81000000    33.36000000
   O     81.09000000    93.03000000    32.42000000
   H     78.95500000    93.38400000    33.86800000
   H     80.10400000    93.18900000    35.21400000
   H     79.63000000    94.81900000    34.67500000
   N     82.04000000    94.59000000    33.66000000
   C     83.19000000    94.83000000    32.81000000
   C     84.41000000    94.03000000    33.27000000
   O     85.47000000    94.13000000    32.65000000
   C     83.61000000    96.29000000    32.88000000
   C     83.63000000    97.00000000    34.22000000
   O     82.49000000    97.13000000    34.72000000
   O     84.66000000    97.20000000    34.89000000
   H     81.90000000    95.17000000    34.47000000
   H     82.95000000    94.48000000    31.81000000
   H     82.79000000    96.79000000    32.36000000
   H     84.52000000    96.48000000    32.31000000
   N     84.38000000    93.29000000    34.38000000
   C     85.51000000    92.67000000    35.03000000
   C     85.56000000    91.25000000    34.50000000
   O     84.68000000    90.39000000    34.62000000
   C     85.39000000    92.60000000    36.55000000
   C     85.23000000    93.93000000    37.28000000
   C     86.37000000    94.90000000    36.96000000
   C     86.32000000    96.13000000    37.86000000
   N     85.18000000    97.03000000    37.65000000
   H     83.50000000    93.30000000    34.89000000
   H     86.44000000    93.19000000    34.76000000
   H     86.27000000    92.10000000    36.94000000
   H     84.53000000    91.96000000    36.74000000
   H     85.13000000    93.61000000    38.31000000
   H     84.27000000    94.31000000    36.92000000
   H     86.42000000    95.18000000    35.91000000
   H     87.29000000    94.38000000    37.22000000
   H     87.21000000    96.69000000    37.57000000
   H     86.50000000    95.88000000    38.90000000
   H     84.36000000    96.56000000    38.02000000
   H     85.23000000    97.94000000    38.10000000
   H     84.99000000    97.17000000    36.67000000
   N     86.59000000    90.85000000    33.76000000
   C     87.69000000    91.65000000    33.24000000
   C     88.27000000    91.09000000    31.95000000
   O     89.24000000    90.34000000    32.02000000
   C     88.79000000    91.81000000    34.28000000
   C     89.85000000    92.85000000    33.95000000
   O     91.06000000    92.62000000    34.19000000
   O     89.44000000    93.98000000    33.63000000
   H     86.54000000    89.85000000    33.62000000
   H     87.35000000    92.63000000    32.92000000
   H     89.28000000    90.86000000    34.52000000
   H     88.29000000    92.10000000    35.20000000
   N     87.68000000    91.38000000    30.79000000
   C     86.47000000    92.16000000    30.59000000
   C     86.07000000    92.09000000    29.13000000
   O     86.97000000    92.12000000    28.30000000
   H     88.10000000    91.07000000    29.92000000
   H     86.74000000    93.20000000    30.78000000
   H     85.70000000    91.84000000    31.28000000
   N     84.79000000    91.97000000    28.74000000
   C     83.64000000    91.94000000    29.61000000
   C     82.46000000    92.64000000    28.96000000
   O     82.24000000    92.68000000    27.75000000
   C     83.16000000    90.55000000    30.02000000
   C     84.13000000    89.40000000    30.23000000
   O     84.31000000    88.97000000    31.39000000
   O     84.69000000    88.97000000    29.19000000
   H     84.74000000    91.83000000    27.74000000
   H     83.81000000    92.53000000    30.51000000
   H     82.50000000    90.23000000    29.22000000
   H     82.51000000    90.65000000    30.89000000
   N     81.68000000    93.40000000    29.74000000
   C     80.60000000    94.27000000    29.31000000
   C     79.27000000    93.60000000    28.98000000
   O     78.31000000    94.26000000    28.59000000
   H     81.70000000    93.35000000    30.74000000
   H     80.84000000    94.89000000    28.44000000
   H     80.43000000    94.96000000    30.13000000
   N     79.21000000    92.28000000    29.10000000
   C     78.02000000    91.46000000    29.19000000
   C     78.09000000    90.56000000    30.41000000
   O     79.17000000    90.30000000    30.94000000
   C     77.77000000    90.68000000    27.90000000
   C     78.53000000    89.37000000    27.68000000
   O     77.89000000    91.41000000    26.70000000
   H     80.06000000    91.83000000    29.43000000
   H     77.19000000    92.15000000    29.35000000
   H     76.79000000    90.22000000    27.99000000
   H     78.55000000    90.94000000    26.19000000
   H     78.07000000    88.97000000    26.77000000
   H     79.61000000    89.43000000    27.66000000
   H     78.24000000    88.62000000    28.42000000
   N     76.99000000    89.93000000    30.83000000
   C     77.03000000    88.95000000    31.90000000
   C     76.03000000    87.84000000    31.61000000
   O     74.82000000    88.03000000    31.56000000
   C     76.88000000    89.66000000    33.24000000
   C     77.02000000    88.81000000    34.51000000
   C     75.56000000    90.42000000    33.30000000
   C     78.33000000    88.05000000    34.71000000
   H     76.07000000    90.05000000    30.43000000
   H     77.96000000    88.39000000    31.88000000
   H     77.65000000    90.43000000    33.23000000
   H     76.17000000    88.12000000    34.44000000
   H     76.91000000    89.46000000    35.37000000
   H     75.62000000    91.16000000    32.50000000
   H     74.65000000    89.83000000    33.26000000
   H     75.58000000    91.01000000    34.21000000
   H     78.14000000    87.33000000    35.51000000
   H     78.63000000    87.60000000    33.76000000
   H     79.15000000    88.65000000    35.10000000
   N     76.53000000    86.60000000    31.73000000
   C     75.71000000    85.43000000    31.48000000
   C     75.71000000    84.40000000    32.60000000
   O     74.90000000    83.47000000    32.63000000
   C     75.79000000    84.84000000    30.08000000
   C     76.98000000    83.89000000    29.95000000
   O     75.95000000    85.78000000    29.04000000
   H     77.53000000    86.55000000    31.84000000
   H     74.69000000    85.80000000    31.47000000
   H     74.88000000    84.32000000    29.77000000
   H     75.04000000    86.09000000    28.94000000
   H     77.06000000    83.61000000    28.90000000
   H     77.82000000    84.46000000    30.34000000
   H     76.73000000    82.94000000    30.43000000
   N     76.60000000    84.51000000    33.59000000
   C     77.06000000    83.55000000    34.57000000
   C     77.87000000    82.38000000    34.04000000
   O     77.81000000    81.96000000    32.89000000
   C     75.90000000    83.17000000    35.49000000
   C     75.07000000    84.30000000    36.10000000
   O     76.47000000    82.53000000    36.61000000
   H     77.31000000    85.20000000    33.41000000
   H     77.74000000    84.02000000    35.28000000
   H     75.26000000    82.45000000    34.98000000
   H     75.74000000    82.55000000    37.24000000
   H     75.67000000    85.00000000    36.67000000
   H     74.73000000    84.88000000    35.24000000
   H     74.21000000    84.08000000    36.72000000
   N     78.72000000    81.76000000    34.87000000
   C     79.32000000    80.48000000    34.60000000
   C     80.83000000    80.29000000    34.72000000
   O     81.39000000    79.46000000    34.01000000
   C     78.66000000    79.42000000    35.48000000
   C     77.88000000    78.31000000    34.78000000
   C     76.75000000    78.79000000    33.87000000
   C     76.01000000    77.53000000    33.42000000
   N     74.61000000    77.82000000    33.07000000
   H     78.74000000    82.15000000    35.80000000
   H     79.17000000    80.29000000    33.54000000
   H     78.02000000    79.93000000    36.21000000
   H     79.40000000    78.98000000    36.15000000
   H     77.41000000    77.70000000    35.55000000
   H     78.47000000    77.59000000    34.22000000
   H     77.05000000    79.49000000    33.10000000
   H     76.05000000    79.32000000    34.52000000
   H     75.96000000    76.89000000    34.30000000
   H     76.50000000    77.10000000    32.55000000
   H     74.10000000    77.94000000    33.93000000
   H     74.64000000    78.67000000    32.52000000
   H     74.23000000    77.01000000    32.60000000
   N     81.60000000    81.13000000    35.42000000
   C     81.44000000    82.29000000    36.27000000
   C     80.44000000    82.08000000    37.40000000
   O     79.81000000    83.03000000    37.86000000
   C     81.36000000    83.62000000    35.53000000
   C     82.03000000    84.71000000    36.37000000
   C     82.47000000    85.91000000    35.55000000
   O     81.76000000    86.36000000    34.62000000
   O     83.63000000    86.38000000    35.61000000
   H     82.54000000    80.89000000    35.17000000
   H     82.39000000    82.25000000    36.80000000
   H     80.32000000    83.79000000    35.27000000
   H     82.00000000    83.51000000    34.65000000
   H     82.95000000    84.31000000    36.80000000
   H     81.44000000    85.06000000    37.22000000
   N     80.12000000    80.86000000    37.84000000
   C     79.15000000    80.64000000    38.88000000
   H     78.21400000    80.29900000    38.43700000
   H     79.52200000    79.88200000    39.57000000
   H     78.97800000    81.57100000    39.42000000
   H     80.77000000    80.13000000    37.57000000
  Ca     83.36000000    88.31000000    33.74000000
   O     81.20000000    88.03000000    31.73000000
   H     80.66000000    88.81000000    31.65000000
   H     80.71000000    87.35000000    31.27000000
   O     82.36000000    89.12000000    36.15000000
   H     82.53000000    88.63000000    36.95000000
   H     82.33000000    90.04000000    36.42000000
   O     82.06000000    90.70000000    33.38000000
   H     81.48000000    91.37000000    33.01000000
   H     82.13000000    90.94000000    34.31000000
   O     83.73000000    85.92000000    32.23000000
   H     84.45000000    85.28000000    32.25000000
   H     82.96000000    85.40000000    32.00000000
   O     86.03000000    87.32000000    33.77000000
   H     86.69000000    86.84000000    34.27000000
   H     86.45000000    87.51000000    32.93000000

Ca 1.00



