%chk=loop3.holoCaM-CaMKII.run46.water3.chk
%nprocshared=20
%mem=10GB
%nosave
#b3lyp/svp scf=(tight,noincore,xqc) Test 
#IOP(5/87=12) Density=Current Pop=(MK,readradii) iop(6/33=2) iop(6/42=6)

loop3.holoCaM-CaMKII.run46.water3 

   0  1 
   C     12.37000000    48.05000000    23.49000000
   C     13.39000000    48.91000000    24.22000000
   O     14.50000000    48.46000000    24.46000000
   H     11.49100000    48.65000000    23.25500000
   H     12.80800000    47.67100000    22.56600000
   H     12.07900000    47.21300000    24.12500000
   N     13.06000000    50.19000000    24.42000000
   C     13.79000000    51.03000000    25.35000000
   C     13.26000000    51.00000000    26.77000000
   O     12.17000000    51.51000000    27.04000000
   C     13.82000000    52.47000000    24.83000000
   C     14.48000000    53.44000000    25.79000000
   O     15.39000000    53.05000000    26.56000000
   O     14.12000000    54.63000000    25.77000000
   H     12.11000000    50.53000000    24.28000000
   H     14.84000000    50.74000000    25.36000000
   H     12.82000000    52.88000000    24.69000000
   H     14.36000000    52.63000000    23.90000000
   N     14.03000000    50.42000000    27.70000000
   C     13.44000000    49.85000000    28.89000000
   C     13.66000000    50.67000000    30.16000000
   O     12.90000000    50.52000000    31.11000000
   C     13.98000000    48.43000000    29.05000000
   C     13.59000000    47.60000000    27.83000000
   C     13.91000000    46.13000000    28.09000000
   C     12.90000000    45.52000000    29.05000000
   N     11.51000000    45.62000000    28.57000000
   H     14.97000000    50.19000000    27.42000000
   H     12.36000000    49.88000000    28.77000000
   H     13.55000000    48.05000000    29.98000000
   H     15.07000000    48.42000000    29.05000000
   H     14.06000000    48.01000000    26.94000000
   H     12.51000000    47.67000000    27.73000000
   H     14.88000000    45.99000000    28.58000000
   H     13.89000000    45.60000000    27.14000000
   H     12.90000000    45.98000000    30.05000000
   H     13.22000000    44.49000000    29.20000000
   H     11.22000000    46.56000000    28.35000000
   H     11.41000000    45.10000000    27.71000000
   H     10.95000000    45.45000000    29.39000000
   N     14.65000000    51.57000000    30.18000000
   C     14.75000000    52.57000000    31.23000000
   C     13.91000000    53.77000000    30.84000000
   O     13.44000000    54.44000000    31.75000000
   C     16.19000000    52.97000000    31.55000000
   C     17.20000000    53.30000000    30.46000000
   O     18.41000000    53.39000000    30.74000000
   O     16.77000000    53.36000000    29.29000000
   H     15.12000000    51.71000000    29.30000000
   H     14.28000000    52.14000000    32.11000000
   H     16.50000000    52.08000000    32.10000000
   H     16.20000000    53.75000000    32.31000000
   N     13.69000000    54.07000000    29.55000000
   C     12.92000000    55.20000000    29.08000000
   C     13.84000000    56.40000000    28.91000000
   O     13.28000000    57.48000000    29.09000000
   H     14.24000000    53.56000000    28.88000000
   H     12.20000000    55.47000000    29.85000000
   H     12.52000000    54.92000000    28.10000000
   N     15.15000000    56.29000000    28.69000000
   C     15.90000000    57.50000000    28.42000000
   C     15.63000000    58.11000000    27.05000000
   O     15.95000000    59.25000000    26.74000000
   C     17.37000000    57.13000000    28.60000000
   C     18.17000000    56.42000000    27.51000000
   N     19.34000000    56.95000000    27.12000000
   O     17.74000000    55.41000000    26.98000000
   H     15.56000000    55.37000000    28.64000000
   H     15.64000000    58.19000000    29.22000000
   H     17.42000000    56.40000000    29.41000000
   H     17.99000000    57.97000000    28.91000000
   H     19.76000000    57.76000000    27.53000000
   H     19.88000000    56.40000000    26.46000000
   N     15.06000000    57.34000000    26.12000000
   C     14.77000000    57.79000000    24.78000000
   C     15.33000000    56.92000000    23.67000000
   O     15.13000000    57.35000000    22.53000000
   H     14.95000000    56.40000000    26.47000000
   H     15.14000000    58.80000000    24.56000000
   H     13.69000000    57.82000000    24.61000000
   N     16.03000000    55.85000000    24.04000000
   C     16.92000000    55.15000000    23.12000000
   C     16.96000000    53.66000000    23.39000000
   O     17.21000000    53.28000000    24.54000000
   C     18.33000000    55.72000000    23.22000000
   C     18.59000000    57.15000000    22.79000000
   C     19.09000000    57.45000000    21.52000000
   C     18.27000000    58.17000000    23.70000000
   C     19.48000000    58.77000000    21.27000000
   C     18.52000000    59.51000000    23.40000000
   C     19.11000000    59.80000000    22.15000000
   O     19.38000000    61.13000000    21.98000000
   H     16.01000000    55.50000000    24.99000000
   H     16.58000000    55.29000000    22.10000000
   H     19.01000000    55.10000000    22.64000000
   H     18.68000000    55.76000000    24.25000000
   H     19.36000000    56.65000000    20.85000000
   H     17.85000000    57.97000000    24.68000000
   H     20.04000000    59.06000000    20.40000000
   H     18.24000000    60.33000000    24.05000000
   H     19.82000000    61.25000000    21.14000000
   N     17.05000000    52.82000000    22.36000000
   C     17.23000000    51.39000000    22.49000000
   C     18.71000000    51.06000000    22.39000000
   O     19.34000000    51.71000000    21.56000000
   C     16.44000000    50.63000000    21.43000000
   C     15.01000000    51.16000000    21.27000000
   C     16.52000000    49.14000000    21.73000000
   C     14.45000000    50.68000000    19.93000000
   H     16.91000000    53.24000000    21.45000000
   H     16.81000000    51.16000000    23.47000000
   H     16.94000000    50.82000000    20.48000000
   H     14.85000000    52.24000000    21.23000000
   H     14.45000000    50.79000000    22.12000000
   H     17.49000000    48.69000000    21.50000000
   H     16.23000000    49.05000000    22.78000000
   H     15.75000000    48.56000000    21.22000000
   H     14.60000000    49.61000000    19.80000000
   H     13.39000000    50.87000000    20.05000000
   H     14.98000000    51.25000000    19.16000000
   N     19.21000000    50.15000000    23.23000000
   C     20.58000000    49.70000000    23.20000000
   C     20.59000000    48.19000000    23.00000000
   O     19.58000000    47.52000000    23.25000000
   C     21.20000000    50.07000000    24.55000000
   O     20.68000000    49.33000000    25.63000000
   H     18.56000000    49.77000000    23.91000000
   H     21.17000000    50.14000000    22.39000000
   H     20.97000000    51.14000000    24.54000000
   H     22.24000000    49.80000000    24.41000000
   H     19.83000000    49.76000000    25.77000000
   N     21.71000000    47.53000000    22.73000000
   C     21.74000000    46.09000000    22.63000000
   C     21.39000000    45.17000000    23.79000000
   O     20.89000000    44.09000000    23.49000000
   C     23.08000000    45.70000000    22.01000000
   H     22.59000000    48.03000000    22.69000000
   H     21.00000000    45.72000000    21.91000000
   H     23.32000000    46.21000000    21.08000000
   H     23.88000000    45.95000000    22.71000000
   H     22.90000000    44.64000000    21.87000000
   N     21.65000000    45.44000000    25.08000000
   C     21.24000000    44.62000000    26.20000000
   C     19.73000000    44.69000000    26.37000000
   O     19.10000000    43.68000000    26.65000000
   C     22.00000000    45.21000000    27.38000000
   H     22.08000000    46.33000000    25.26000000
   H     21.55000000    43.58000000    26.09000000
   H     22.04000000    44.45000000    28.17000000
   H     23.03000000    45.40000000    27.10000000
   H     21.60000000    46.16000000    27.74000000
   N     19.09000000    45.83000000    26.08000000
   C     17.67000000    46.08000000    26.04000000
   C     17.05000000    45.37000000    24.84000000
   O     16.01000000    44.73000000    24.96000000
   C     17.33000000    47.56000000    25.93000000
   C     17.80000000    48.34000000    27.15000000
   C     17.60000000    49.83000000    26.92000000
   O     18.12000000    50.31000000    25.89000000
   O     16.91000000    50.52000000    27.70000000
   H     19.68000000    46.59000000    25.77000000
   H     17.26000000    45.65000000    26.95000000
   H     16.24000000    47.65000000    25.93000000
   H     17.67000000    47.99000000    24.99000000
   H     18.87000000    48.21000000    27.32000000
   H     17.37000000    47.84000000    28.02000000
   N     17.70000000    45.47000000    23.67000000
   C     17.32000000    44.70000000    22.51000000
   H     16.45400000    45.16200000    22.03600000
   H     18.14900000    44.67300000    21.80300000
   H     17.06800000    43.68400000    22.81400000
   H     18.38000000    46.20000000    23.55000000
  Ca     17.94000000    52.79000000    27.00000000
   O     20.08000000    53.54000000    25.27000000
   H     20.84000000    52.97000000    25.13000000
   H     20.39000000    54.41000000    25.03000000
   O     19.73000000    54.22000000    28.73000000
   H     20.45000000    54.69000000    29.16000000
   H     19.20000000    53.89000000    29.46000000
   O     20.07000000    51.50000000    28.08000000
   H     20.40000000    50.60000000    28.06000000
   H     20.65000000    51.95000000    28.69000000

Ca 1.00



