%chk=loop1.apoCaM-CA-Ng.Init293.run2.water4.chk
%nprocshared=20
%mem=10GB
%nosave
#b3lyp/svp scf=(tight,noincore,xqc) Test 
#IOP(5/87=12) Density=Current Pop=(MK,readradii) iop(6/33=2) iop(6/42=6)

loop1.apoCaM-CA-Ng.Init293.run2.water4 

   0  1 
   C     37.85000000    41.55000000    16.68000000
   C     37.61000000    41.78000000    15.19000000
   O     38.33000000    42.52000000    14.53000000
   H     38.59300000    42.26100000    17.04200000
   H     36.91700000    41.69200000    17.22500000
   H     38.21300000    40.53400000    16.83800000
   N     36.49000000    41.29000000    14.65000000
   C     36.18000000    41.40000000    13.24000000
   C     35.27000000    42.57000000    12.93000000
   O     34.42000000    42.49000000    12.04000000
   C     35.61000000    40.10000000    12.68000000
   C     34.32000000    39.57000000    13.27000000
   O     33.83000000    38.54000000    12.75000000
   O     33.89000000    40.09000000    14.33000000
   H     35.93000000    40.66000000    15.20000000
   H     37.12000000    41.54000000    12.70000000
   H     36.32000000    39.30000000    12.89000000
   H     35.36000000    40.32000000    11.64000000
   N     35.34000000    43.65000000    13.71000000
   C     34.48000000    44.82000000    13.63000000
   C     35.34000000    46.07000000    13.59000000
   O     36.02000000    46.41000000    14.56000000
   C     33.47000000    44.84000000    14.78000000
   C     32.55000000    43.64000000    14.96000000
   C     31.40000000    43.36000000    14.00000000
   C     30.69000000    42.03000000    14.26000000
   N     31.45000000    40.97000000    13.58000000
   H     35.94000000    43.57000000    14.52000000
   H     33.90000000    44.68000000    12.72000000
   H     32.93000000    45.78000000    14.84000000
   H     34.07000000    44.90000000    15.69000000
   H     32.07000000    43.72000000    15.93000000
   H     33.18000000    42.75000000    15.00000000
   H     31.76000000    43.50000000    12.99000000
   H     30.64000000    44.12000000    14.18000000
   H     29.73000000    42.10000000    13.76000000
   H     30.33000000    41.79000000    15.26000000
   H     32.36000000    40.87000000    14.00000000
   H     30.87000000    40.14000000    13.61000000
   H     31.60000000    41.20000000    12.60000000
   N     35.42000000    46.89000000    12.54000000
   C     34.86000000    46.70000000    11.22000000
   C     33.35000000    46.89000000    11.17000000
   O     32.59000000    46.49000000    12.06000000
   C     35.43000000    45.51000000    10.45000000
   C     36.92000000    45.73000000    10.23000000
   O     37.47000000    46.83000000    10.47000000
   O     37.55000000    44.82000000     9.66000000
   H     36.21000000    47.52000000    12.61000000
   H     35.29000000    47.54000000    10.68000000
   H     34.90000000    45.43000000     9.50000000
   H     35.22000000    44.55000000    10.93000000
   N     32.80000000    47.45000000    10.09000000
   C     33.34000000    47.77000000     8.79000000
   C     32.25000000    47.82000000     7.73000000
   O     31.28000000    48.57000000     7.90000000
   H     31.83000000    47.71000000    10.22000000
   H     34.11000000    47.05000000     8.52000000
   H     33.88000000    48.72000000     8.77000000
   N     32.21000000    46.98000000     6.70000000
   C     33.06000000    45.86000000     6.36000000
   C     32.88000000    44.60000000     7.20000000
   O     31.77000000    44.26000000     7.62000000
   C     32.78000000    45.55000000     4.90000000
   C     33.71000000    44.53000000     4.24000000
   O     34.89000000    44.94000000     4.19000000
   O     33.36000000    43.42000000     3.80000000
   H     31.53000000    47.22000000     5.99000000
   H     34.11000000    46.12000000     6.51000000
   H     32.90000000    46.51000000     4.38000000
   H     31.74000000    45.26000000     4.79000000
   N     33.98000000    43.88000000     7.44000000
   C     34.00000000    42.74000000     8.33000000
   C     35.17000000    41.80000000     8.06000000
   O     35.04000000    40.92000000     7.20000000
   H     34.88000000    44.13000000     7.06000000
   H     33.09000000    42.13000000     8.36000000
   H     34.17000000    43.17000000     9.31000000
   N     36.29000000    41.95000000     8.75000000
   C     37.41000000    41.03000000     8.64000000
   C     38.27000000    40.97000000     9.89000000
   O     38.67000000    41.99000000    10.45000000
   C     38.24000000    41.44000000     7.42000000
   C     39.02000000    40.24000000     6.90000000
   O     39.11000000    42.52000000     7.68000000
   H     36.35000000    42.70000000     9.43000000
   H     36.96000000    40.06000000     8.46000000
   H     37.54000000    41.73000000     6.64000000
   H     39.52000000    42.85000000     6.88000000
   H     38.43000000    39.68000000     6.17000000
   H     39.86000000    40.65000000     6.35000000
   H     39.32000000    39.61000000     7.74000000
   N     38.77000000    39.81000000    10.33000000
   C     39.68000000    39.66000000    11.44000000
   C     41.13000000    40.07000000    11.19000000
   O     41.66000000    40.86000000    11.96000000
   C     39.58000000    38.30000000    12.12000000
   C     40.25000000    38.29000000    13.49000000
   C     40.18000000    37.21000000    11.24000000
   C     39.85000000    39.37000000    14.48000000
   H     38.64000000    38.97000000     9.78000000
   H     39.33000000    40.38000000    12.17000000
   H     38.51000000    38.15000000    12.25000000
   H     41.32000000    38.45000000    13.34000000
   H     40.10000000    37.33000000    13.99000000
   H     39.81000000    37.26000000    10.22000000
   H     41.26000000    37.23000000    11.17000000
   H     39.96000000    36.17000000    11.50000000
   H     40.54000000    40.21000000    14.39000000
   H     38.87000000    39.72000000    14.16000000
   H     39.88000000    38.99000000    15.50000000
   N     41.75000000    39.56000000    10.13000000
   C     42.86000000    40.03000000     9.31000000
   C     44.11000000    40.40000000    10.08000000
   O     44.98000000    39.54000000    10.19000000
   C     42.37000000    41.12000000     8.37000000
   C     43.39000000    41.66000000     7.38000000
   O     41.88000000    42.26000000     9.04000000
   H     41.19000000    38.89000000     9.63000000
   H     43.15000000    39.21000000     8.65000000
   H     41.59000000    40.61000000     7.79000000
   H     42.45000000    42.97000000     8.75000000
   H     42.95000000    42.08000000     6.47000000
   H     43.94000000    42.52000000     7.76000000
   H     44.12000000    40.96000000     6.97000000
   N     44.19000000    41.58000000    10.70000000
   C     45.33000000    42.19000000    11.35000000
   C     46.52000000    42.41000000    10.43000000
   O     46.78000000    41.53000000     9.61000000
   C     45.72000000    41.54000000    12.67000000
   C     44.70000000    41.74000000    13.79000000
   O     46.89000000    42.19000000    13.10000000
   H     43.38000000    42.18000000    10.76000000
   H     45.02000000    43.19000000    11.64000000
   H     45.82000000    40.49000000    12.41000000
   H     47.45000000    41.53000000    13.51000000
   H     44.99000000    41.08000000    14.61000000
   H     44.61000000    42.79000000    14.06000000
   H     43.75000000    41.40000000    13.37000000
   N     47.24000000    43.53000000    10.50000000
   C     48.37000000    43.97000000     9.70000000
   C     48.24000000    45.28000000     8.94000000
   O     48.76000000    45.28000000     7.83000000
   C     49.68000000    43.91000000    10.48000000
   C     50.18000000    42.49000000    10.73000000
   C     50.60000000    41.66000000     9.52000000
   C     51.55000000    42.33000000     8.54000000
   N     52.02000000    41.41000000     7.49000000
   H     47.01000000    44.14000000    11.27000000
   H     48.52000000    43.27000000     8.87000000
   H     49.48000000    44.41000000    11.43000000
   H     50.40000000    44.48000000     9.90000000
   H     49.35000000    42.02000000    11.25000000
   H     50.97000000    42.45000000    11.48000000
   H     49.67000000    41.44000000     9.00000000
   H     51.03000000    40.67000000     9.69000000
   H     52.37000000    42.59000000     9.21000000
   H     51.17000000    43.25000000     8.09000000
   H     52.24000000    40.51000000     7.90000000
   H     51.34000000    41.20000000     6.77000000
   H     52.79000000    41.75000000     6.94000000
   N     47.46000000    46.31000000     9.27000000
   C     46.44000000    46.55000000    10.27000000
   C     46.86000000    46.30000000    11.71000000
   O     46.17000000    45.66000000    12.52000000
   C     45.03000000    46.02000000    10.00000000
   C     44.61000000    46.20000000     8.54000000
   C     43.23000000    45.69000000     8.17000000
   O     42.80000000    44.75000000     8.87000000
   O     42.64000000    46.03000000     7.12000000
   H     47.50000000    47.00000000     8.54000000
   H     46.30000000    47.63000000    10.27000000
   H     44.35000000    46.60000000    10.62000000
   H     44.98000000    44.96000000    10.27000000
   H     45.31000000    45.77000000     7.82000000
   H     44.65000000    47.27000000     8.38000000
   N     48.10000000    46.70000000    11.98000000
   C     48.66000000    46.91000000    13.30000000
   H     49.54800000    47.53700000    13.22200000
   H     47.92300000    47.40300000    13.93400000
   H     48.93200000    45.94900000    13.73700000
   H     48.64000000    47.09000000    11.22000000
  Ca     40.00000000    44.29000000     9.92000000
   O     40.03000000    45.43000000     7.45000000
   H     39.64000000    45.78000000     6.66000000
   H     40.97000000    45.43000000     7.28000000
   O     41.77000000    43.50000000    11.87000000
   H     41.58000000    42.61000000    12.18000000
   H     42.12000000    43.95000000    12.63000000
   O     38.96000000    44.58000000    12.28000000
   H     38.48000000    45.40000000    12.44000000
   H     38.74000000    44.03000000    13.03000000
   O     40.72000000    46.80000000    10.46000000
   H     40.29000000    47.28000000    11.17000000
   H     41.56000000    47.24000000    10.36000000

Ca 1.00



