%chk=loop4.apoCaM-CA-Ng.Init293.run17.water4.chk
%nprocshared=20
%mem=10GB
%nosave
#b3lyp/svp scf=(tight,noincore,xqc) Test 
#IOP(5/87=12) Density=Current Pop=(MK,readradii) iop(6/33=2) iop(6/42=6)

loop4.apoCaM-CA-Ng.Init293.run17.water4 

   -3  1 
   C     52.35000000    39.14000000    29.81000000
   C     53.15000000    40.38000000    29.42000000
   O     54.36000000    40.25000000    29.28000000
   H     51.38800000    39.15300000    29.29800000
   H     52.90200000    38.24500000    29.52200000
   H     52.18700000    39.13600000    30.88800000
   N     52.55000000    41.55000000    29.24000000
   C     53.15000000    42.79000000    28.77000000
   C     54.01000000    42.54000000    27.54000000
   O     55.21000000    42.81000000    27.57000000
   C     53.79000000    43.64000000    29.87000000
   C     54.84000000    43.01000000    30.77000000
   O     54.59000000    42.95000000    31.99000000
   O     55.88000000    42.47000000    30.33000000
   H     51.58000000    41.61000000    29.52000000
   H     52.36000000    43.43000000    28.39000000
   H     52.91000000    43.88000000    30.46000000
   H     54.28000000    44.51000000    29.44000000
   N     53.33000000    42.09000000    26.48000000
   C     53.66000000    41.68000000    25.13000000
   C     54.32000000    42.79000000    24.32000000
   O     53.91000000    43.06000000    23.20000000
   C     54.58000000    40.47000000    25.25000000
   C     54.86000000    39.91000000    23.86000000
   C     53.98000000    39.29000000    26.02000000
   C     53.71000000    39.27000000    23.08000000
   H     52.38000000    41.80000000    26.66000000
   H     52.72000000    41.44000000    24.62000000
   H     55.54000000    40.72000000    25.68000000
   H     55.61000000    39.14000000    23.96000000
   H     55.42000000    40.64000000    23.26000000
   H     53.94000000    39.42000000    27.10000000
   H     52.99000000    38.93000000    25.72000000
   H     54.67000000    38.46000000    26.03000000
   H     54.10000000    39.18000000    22.06000000
   H     53.60000000    38.24000000    23.40000000
   H     52.80000000    39.87000000    23.11000000
   N     55.30000000    43.48000000    24.92000000
   C     56.41000000    44.07000000    24.20000000
   C     57.75000000    43.60000000    24.73000000
   O     57.78000000    43.21000000    25.90000000
   C     56.36000000    45.60000000    24.32000000
   C     56.50000000    46.06000000    25.76000000
   O     55.45000000    46.10000000    26.44000000
   O     57.62000000    46.50000000    26.10000000
   H     55.58000000    43.15000000    25.83000000
   H     56.33000000    43.93000000    23.13000000
   H     55.47000000    45.99000000    23.83000000
   H     57.18000000    46.11000000    23.82000000
   N     58.89000000    43.81000000    24.05000000
   C     59.04000000    44.31000000    22.70000000
   C     60.37000000    44.00000000    22.03000000
   O     61.17000000    43.29000000    22.63000000
   H     59.73000000    43.65000000    24.57000000
   H     58.91000000    45.39000000    22.66000000
   H     58.31000000    43.80000000    22.08000000
   N     60.67000000    44.55000000    20.85000000
   C     59.79000000    45.30000000    19.97000000
   C     58.84000000    44.41000000    19.19000000
   O     57.75000000    44.82000000    18.79000000
   C     60.59000000    46.21000000    19.04000000
   C     61.62000000    45.49000000    18.18000000
   O     62.82000000    45.37000000    18.52000000
   O     61.21000000    44.97000000    17.12000000
   H     61.55000000    44.30000000    20.44000000
   H     59.21000000    46.04000000    20.52000000
   H     61.09000000    47.05000000    19.52000000
   H     59.93000000    46.64000000    18.29000000
   N     58.91000000    43.10000000    18.93000000
   C     60.09000000    42.26000000    18.86000000
   C     59.90000000    40.84000000    18.33000000
   O     58.80000000    40.40000000    18.01000000
   H     58.03000000    42.76000000    18.56000000
   H     60.58000000    42.15000000    19.83000000
   H     60.73000000    42.87000000    18.23000000
   N     60.94000000    40.03000000    18.53000000
   C     60.94000000    38.62000000    18.20000000
   C     60.20000000    37.70000000    19.16000000
   O     59.74000000    36.63000000    18.77000000
   C     62.31000000    38.17000000    17.69000000
   C     62.93000000    39.01000000    16.57000000
   C     64.18000000    38.33000000    16.02000000
   N     65.27000000    38.41000000    16.78000000
   O     64.17000000    37.50000000    15.11000000
   H     61.78000000    40.51000000    18.81000000
   H     60.36000000    38.59000000    17.28000000
   H     62.21000000    37.17000000    17.26000000
   H     63.05000000    38.11000000    18.48000000
   H     63.25000000    39.96000000    17.00000000
   H     62.25000000    39.10000000    15.73000000
   H     65.36000000    39.17000000    17.44000000
   H     66.03000000    37.94000000    16.31000000
   N     60.12000000    38.17000000    20.41000000
   C     59.19000000    37.73000000    21.42000000
   C     59.76000000    36.73000000    22.42000000
   O     58.99000000    36.02000000    23.08000000
   C     58.56000000    38.91000000    22.15000000
   C     57.67000000    39.68000000    21.18000000
   C     59.59000000    39.87000000    22.72000000
   H     60.63000000    39.02000000    20.59000000
   H     58.37000000    37.21000000    20.93000000
   H     58.04000000    38.45000000    23.00000000
   H     56.86000000    40.15000000    21.73000000
   H     58.21000000    40.49000000    20.70000000
   H     57.25000000    39.07000000    20.37000000
   H     59.01000000    40.75000000    23.01000000
   H     60.29000000    39.47000000    23.46000000
   H     60.23000000    40.20000000    21.90000000
   N     61.09000000    36.63000000    22.49000000
   C     61.70000000    35.75000000    23.46000000
   C     62.54000000    36.55000000    24.44000000
   O     62.23000000    36.66000000    25.63000000
   C     62.59000000    34.71000000    22.77000000
   C     61.74000000    33.88000000    21.82000000
   N     61.39000000    32.66000000    22.23000000
   O     61.41000000    34.21000000    20.68000000
   H     61.72000000    37.25000000    22.00000000
   H     60.97000000    35.20000000    24.05000000
   H     62.94000000    34.07000000    23.57000000
   H     63.47000000    35.14000000    22.28000000
   H     61.66000000    32.33000000    23.14000000
   H     61.10000000    31.96000000    21.55000000
   N     63.50000000    37.37000000    24.01000000
   C     64.41000000    38.07000000    24.89000000
   C     63.62000000    39.04000000    25.75000000
   O     62.87000000    39.90000000    25.30000000
   C     65.49000000    38.72000000    24.04000000
   C     66.62000000    39.30000000    24.87000000
   C     67.50000000    38.48000000    25.58000000
   C     66.69000000    40.69000000    25.06000000
   C     68.54000000    39.02000000    26.35000000
   C     67.78000000    41.24000000    25.73000000
   C     68.68000000    40.42000000    26.44000000
   O     69.70000000    40.99000000    27.15000000
   H     63.73000000    37.45000000    23.03000000
   H     64.95000000    37.33000000    25.48000000
   H     64.95000000    39.57000000    23.64000000
   H     65.83000000    38.08000000    23.23000000
   H     67.55000000    37.42000000    25.40000000
   H     66.10000000    41.37000000    24.46000000
   H     69.27000000    38.34000000    26.75000000
   H     67.88000000    42.32000000    25.68000000
   H     69.56000000    41.94000000    27.19000000
   N     64.01000000    39.02000000    27.03000000
   C     63.41000000    39.78000000    28.11000000
   C     62.00000000    39.36000000    28.48000000
   O     61.40000000    39.82000000    29.45000000
   C     63.70000000    41.27000000    27.99000000
   C     63.58000000    42.03000000    29.31000000
   C     63.87000000    43.52000000    29.23000000
   O     62.93000000    44.34000000    29.10000000
   O     65.06000000    43.89000000    29.19000000
   H     64.95000000    38.68000000    27.20000000
   H     63.89000000    39.48000000    29.04000000
   H     63.13000000    41.78000000    27.21000000
   H     64.77000000    41.35000000    27.76000000
   H     64.11000000    41.57000000    30.14000000
   H     62.56000000    41.94000000    29.70000000
   N     61.41000000    38.41000000    27.75000000
   C     60.20000000    37.69000000    28.07000000
   C     60.45000000    36.26000000    28.55000000
   O     59.70000000    35.77000000    29.39000000
   C     59.20000000    37.65000000    26.92000000
   C     58.99000000    38.97000000    26.19000000
   C     58.66000000    40.14000000    27.10000000
   O     59.43000000    41.11000000    27.26000000
   O     57.56000000    40.19000000    27.70000000
   H     61.84000000    37.97000000    26.95000000
   H     59.67000000    38.11000000    28.93000000
   H     58.30000000    37.19000000    27.33000000
   H     59.62000000    36.91000000    26.23000000
   H     58.23000000    38.79000000    25.43000000
   H     59.92000000    39.23000000    25.69000000
   N     61.58000000    35.66000000    28.20000000
   C     62.04000000    34.49000000    28.93000000
   H     62.95600000    34.73500000    29.46800000
   H     61.27400000    34.18000000    29.64000000
   H     62.23700000    33.67800000    28.23000000
   H     62.22000000    36.05000000    27.52000000
  Ca     57.64000000    42.58000000    28.60000000
   O     56.84000000    45.22000000    28.70000000
   H     57.39000000    46.00000000    28.66000000
   H     56.19000000    45.35000000    28.02000000
   O     59.11000000    41.25000000    30.47000000
   H     59.87000000    40.69000000    30.31000000
   H     58.47000000    40.68000000    30.89000000
   O     60.34000000    43.79000000    28.07000000
   H     61.21000000    43.95000000    28.45000000
   H     60.47000000    43.03000000    27.50000000
   O     58.79000000    44.11000000    30.52000000
   H     59.24000000    44.95000000    30.63000000
   H     59.11000000    43.57000000    31.24000000

Ca 1.00



