%chk=loop4.apoCaM-CA-Ng.Init31.run93.water4.chk
%nprocshared=20
%mem=10GB
%nosave
#b3lyp/svp scf=(tight,noincore,xqc) Test 
#IOP(5/87=12) Density=Current Pop=(MK,readradii) iop(6/33=2) iop(6/42=6)

loop4.apoCaM-CA-Ng.Init31.run93.water4 

   -3  1 
   C     58.16000000    57.01000000    53.26000000
   C     58.83000000    57.81000000    52.16000000
   O     58.14000000    58.64000000    51.57000000
   H     57.15900000    56.72000000    52.93900000
   H     58.74800000    56.11600000    53.46900000
   H     58.09000000    57.61900000    54.16200000
   N     60.01000000    57.49000000    51.61000000
   C     61.06000000    56.72000000    52.25000000
   C     61.70000000    57.54000000    53.36000000
   O     62.14000000    57.07000000    54.40000000
   C     62.12000000    56.18000000    51.29000000
   C     63.24000000    55.32000000    51.85000000
   O     64.42000000    55.64000000    51.61000000
   O     62.99000000    54.23000000    52.41000000
   H     60.19000000    58.15000000    50.87000000
   H     60.63000000    55.83000000    52.71000000
   H     62.59000000    56.99000000    50.75000000
   H     61.72000000    55.57000000    50.48000000
   N     61.83000000    58.85000000    53.11000000
   C     62.03000000    59.94000000    54.04000000
   C     62.69000000    61.17000000    53.44000000
   O     63.03000000    62.11000000    54.16000000
   C     60.67000000    60.32000000    54.62000000
   C     60.86000000    60.92000000    56.01000000
   C     59.84000000    61.12000000    53.62000000
   C     59.60000000    60.79000000    56.86000000
   H     61.58000000    59.12000000    52.17000000
   H     62.62000000    59.57000000    54.88000000
   H     60.19000000    59.39000000    54.93000000
   H     61.11000000    61.98000000    55.99000000
   H     61.65000000    60.43000000    56.59000000
   H     60.14000000    62.16000000    53.62000000
   H     60.02000000    60.70000000    52.63000000
   H     58.75000000    61.00000000    53.67000000
   H     59.80000000    61.21000000    57.84000000
   H     58.77000000    61.35000000    56.43000000
   H     59.42000000    59.73000000    57.05000000
   N     63.10000000    61.15000000    52.17000000
   C     63.97000000    62.11000000    51.52000000
   C     65.02000000    61.36000000    50.71000000
   O     64.83000000    60.24000000    50.23000000
   C     63.12000000    62.93000000    50.56000000
   C     63.90000000    64.02000000    49.83000000
   O     63.59000000    64.21000000    48.64000000
   O     64.68000000    64.74000000    50.49000000
   H     62.92000000    60.32000000    51.63000000
   H     64.53000000    62.75000000    52.20000000
   H     62.26000000    63.33000000    51.10000000
   H     62.73000000    62.42000000    49.68000000
   N     66.23000000    61.91000000    50.60000000
   C     67.39000000    61.27000000    50.02000000
   C     67.39000000    60.97000000    48.53000000
   O     66.80000000    61.73000000    47.77000000
   H     66.27000000    62.89000000    50.84000000
   H     67.47000000    60.29000000    50.51000000
   H     68.28000000    61.82000000    50.31000000
   N     67.96000000    59.84000000    48.10000000
   C     68.07000000    59.49000000    46.70000000
   C     69.18000000    60.30000000    46.05000000
   O     70.24000000    60.43000000    46.66000000
   C     68.27000000    57.98000000    46.56000000
   C     69.43000000    57.40000000    47.37000000
   O     69.31000000    57.18000000    48.59000000
   O     70.51000000    57.16000000    46.80000000
   H     68.32000000    59.23000000    48.82000000
   H     67.14000000    59.78000000    46.21000000
   H     68.30000000    57.68000000    45.51000000
   H     67.34000000    57.52000000    46.89000000
   N     68.98000000    60.70000000    44.80000000
   C     67.76000000    60.57000000    44.01000000
   C     67.81000000    61.18000000    42.62000000
   O     68.07000000    62.38000000    42.51000000
   H     69.74000000    61.13000000    44.30000000
   H     67.00000000    61.14000000    44.54000000
   H     67.37000000    59.55000000    44.04000000
   N     67.83000000    60.49000000    41.48000000
   C     67.69000000    59.10000000    41.10000000
   C     66.41000000    58.49000000    41.67000000
   O     65.56000000    59.14000000    42.27000000
   C     68.97000000    58.31000000    41.36000000
   C     70.17000000    58.74000000    40.52000000
   C     70.07000000    58.38000000    39.05000000
   N     70.89000000    58.94000000    38.15000000
   O     69.25000000    57.54000000    38.70000000
   H     67.96000000    61.08000000    40.67000000
   H     67.48000000    59.19000000    40.04000000
   H     68.80000000    57.25000000    41.15000000
   H     69.16000000    58.35000000    42.43000000
   H     71.09000000    58.34000000    40.96000000
   H     70.18000000    59.83000000    40.58000000
   H     71.53000000    59.68000000    38.41000000
   H     70.83000000    58.67000000    37.18000000
   N     66.33000000    57.19000000    41.38000000
   C     65.40000000    56.21000000    41.90000000
   C     65.32000000    55.12000000    40.84000000
   O     66.39000000    54.84000000    40.31000000
   C     65.74000000    55.69000000    43.29000000
   C     65.62000000    56.65000000    44.48000000
   C     67.16000000    55.14000000    43.47000000
   H     67.16000000    56.82000000    40.93000000
   H     64.41000000    56.68000000    41.96000000
   H     64.98000000    54.92000000    43.37000000
   H     66.34000000    57.46000000    44.39000000
   H     64.62000000    57.05000000    44.37000000
   H     65.70000000    56.15000000    45.44000000
   H     67.87000000    55.95000000    43.60000000
   H     67.29000000    54.49000000    44.34000000
   H     67.42000000    54.60000000    42.56000000
   N     64.14000000    54.57000000    40.55000000
   C     63.98000000    53.49000000    39.59000000
   C     64.55000000    52.19000000    40.16000000
   O     64.62000000    51.16000000    39.49000000
   C     62.51000000    53.51000000    39.17000000
   C     62.12000000    52.36000000    38.26000000
   N     62.51000000    52.48000000    36.99000000
   O     61.60000000    51.31000000    38.62000000
   H     63.33000000    54.86000000    41.07000000
   H     64.59000000    53.84000000    38.76000000
   H     62.24000000    54.44000000    38.67000000
   H     61.93000000    53.48000000    40.09000000
   H     63.10000000    53.25000000    36.71000000
   H     62.48000000    51.63000000    36.44000000
   N     64.82000000    52.19000000    41.47000000
   C     65.04000000    51.00000000    42.26000000
   C     64.66000000    51.23000000    43.71000000
   O     64.76000000    52.35000000    44.21000000
   C     66.50000000    50.55000000    42.20000000
   C     66.93000000    49.42000000    43.09000000
   C     66.44000000    48.13000000    42.83000000
   C     67.74000000    49.71000000    44.20000000
   C     66.76000000    47.09000000    43.70000000
   C     68.16000000    48.65000000    45.00000000
   C     67.60000000    47.37000000    44.80000000
   O     67.98000000    46.35000000    45.61000000
   H     64.91000000    53.09000000    41.91000000
   H     64.44000000    50.18000000    41.86000000
   H     67.06000000    51.45000000    42.48000000
   H     66.79000000    50.36000000    41.17000000
   H     65.84000000    47.95000000    41.95000000
   H     68.04000000    50.72000000    44.43000000
   H     66.39000000    46.08000000    43.53000000
   H     68.88000000    48.71000000    45.80000000
   H     67.55000000    45.53000000    45.34000000
   N     64.22000000    50.17000000    44.39000000
   C     63.94000000    50.08000000    45.81000000
   C     62.67000000    50.81000000    46.22000000
   O     61.63000000    50.62000000    45.60000000
   C     63.83000000    48.60000000    46.16000000
   C     63.44000000    48.43000000    47.63000000
   C     63.40000000    46.93000000    47.89000000
   O     64.40000000    46.52000000    48.51000000
   O     62.46000000    46.21000000    47.49000000
   H     64.19000000    49.30000000    43.89000000
   H     64.74000000    50.54000000    46.40000000
   H     64.80000000    48.13000000    45.99000000
   H     63.15000000    48.13000000    45.45000000
   H     62.40000000    48.74000000    47.72000000
   H     63.96000000    49.05000000    48.36000000
   N     62.69000000    51.70000000    47.21000000
   C     61.46000000    52.06000000    47.88000000
   C     60.99000000    53.40000000    47.34000000
   O     60.65000000    54.29000000    48.12000000
   C     61.79000000    52.16000000    49.37000000
   C     61.98000000    50.78000000    49.99000000
   C     62.05000000    50.86000000    51.50000000
   O     63.19000000    50.91000000    52.01000000
   O     61.04000000    50.99000000    52.23000000
   H     63.55000000    51.93000000    47.69000000
   H     60.63000000    51.38000000    47.68000000
   H     60.99000000    52.62000000    49.94000000
   H     62.66000000    52.81000000    49.46000000
   H     62.84000000    50.19000000    49.65000000
   H     61.01000000    50.32000000    49.83000000
   N     61.12000000    53.64000000    46.04000000
   C     60.92000000    54.89000000    45.33000000
   H     60.09800000    55.44000000    45.78800000
   H     61.83000000    55.48800000    45.38200000
   H     60.68100000    54.68200000    44.28700000
   H     61.42000000    52.87000000    45.47000000
  Ca     62.52000000    52.45000000    54.06000000
   O     63.46000000    54.57000000    55.15000000
   H     63.71000000    54.74000000    56.06000000
   H     63.07000000    55.40000000    54.86000000
   O     62.49000000    52.01000000    56.83000000
   H     63.27000000    51.65000000    57.27000000
   H     61.88000000    52.19000000    57.55000000
   O     63.09000000    49.98000000    54.62000000
   H     62.53000000    49.30000000    54.22000000
   H     63.68000000    49.49000000    55.20000000
   O     65.30000000    52.20000000    54.18000000
   H     65.88000000    51.65000000    53.65000000
   H     65.88000000    52.79000000    54.64000000

Ca 1.00



