%chk=loop3.holoCaM-CaMKII.run75.water2.chk
%nprocshared=20
%mem=10GB
%nosave
#b3lyp/svp scf=(tight,noincore,xqc) Test 
#IOP(5/87=12) Density=Current Pop=(MK,readradii) iop(6/33=2) iop(6/42=6)

loop3.holoCaM-CaMKII.run75.water2 

   0  1 
   C     20.14000000    35.05000000    99.87500000
   C     20.66000000    33.63000000    99.77500000
   O     21.58000000    33.42000000    98.98500000
   H     19.17400000    35.04800000   100.37900000
   H     20.84500000    35.65600000   100.44400000
   H     20.02600000    35.46700000    98.87400000
   N     20.24000000    32.60000000   100.52500000
   C     20.38000000    31.18000000   100.25500000
   C     19.20000000    30.88000000    99.35500000
   O     18.04000000    31.08000000    99.71500000
   C     20.34000000    30.44000000   101.58500000
   C     20.66000000    28.96000000   101.46500000
   O     20.77000000    28.34000000   102.54500000
   O     20.82000000    28.43000000   100.34500000
   H     19.62000000    32.82000000   101.28500000
   H     21.29000000    30.87000000    99.73500000
   H     19.37000000    30.46000000   102.09500000
   H     21.07000000    30.91000000   102.24500000
   N     19.44000000    30.45000000    98.11500000
   C     18.48000000    30.03000000    97.11500000
   C     17.87000000    28.67000000    97.45500000
   O     16.65000000    28.59000000    97.54500000
   C     18.91000000    30.23000000    95.66500000
   C     17.81000000    30.29000000    94.60500000
   C     18.44000000    30.54000000    93.23500000
   C     19.41000000    29.53000000    92.64500000
   N     18.72000000    28.36000000    92.08500000
   H     20.40000000    30.20000000    97.88500000
   H     17.62000000    30.70000000    97.18500000
   H     19.49000000    29.32000000    95.47500000
   H     19.64000000    31.03000000    95.59500000
   H     17.07000000    31.06000000    94.78500000
   H     17.27000000    29.34000000    94.60500000
   H     18.94000000    31.50000000    93.41500000
   H     17.68000000    30.76000000    92.48500000
   H     20.17000000    29.31000000    93.39500000
   H     19.90000000    29.91000000    91.74500000
   H     18.63000000    27.57000000    92.69500000
   H     17.87000000    28.60000000    91.59500000
   H     19.31000000    28.05000000    91.32500000
   N     18.67000000    27.67000000    97.82500000
   C     18.15000000    26.32000000    97.99500000
   C     17.75000000    25.96000000    99.41500000
   O     17.11000000    24.95000000    99.66500000
   C     19.17000000    25.29000000    97.50500000
   C     20.56000000    25.62000000    98.02500000
   O     20.83000000    25.65000000    99.24500000
   O     21.37000000    26.16000000    97.24500000
   H     19.65000000    27.86000000    97.93500000
   H     17.27000000    26.20000000    97.36500000
   H     19.16000000    25.22000000    96.41500000
   H     18.75000000    24.35000000    97.85500000
   N     18.12000000    26.79000000   100.39500000
   C     17.88000000    26.63000000   101.81500000
   C     18.71000000    25.61000000   102.58500000
   O     18.23000000    25.05000000   103.57500000
   H     18.77000000    27.51000000   100.10500000
   H     16.84000000    26.35000000   101.96500000
   H     17.99000000    27.58000000   102.33500000
   N     19.87000000    25.21000000   102.05500000
   C     20.84000000    24.32000000   102.65500000
   C     21.64000000    24.93000000   103.79500000
   O     22.45000000    24.23000000   104.39500000
   C     21.64000000    23.67000000   101.53500000
   C     23.04000000    24.24000000   101.30500000
   N     23.98000000    23.34000000   101.00500000
   O     23.28000000    25.43000000   101.18500000
   H     20.02000000    25.66000000   101.16500000
   H     20.34000000    23.51000000   103.19500000
   H     21.04000000    23.75000000   100.62500000
   H     21.84000000    22.62000000   101.74500000
   H     23.68000000    22.40000000   101.20500000
   H     24.95000000    23.61000000   101.07500000
   N     21.47000000    26.21000000   104.15500000
   C     22.19000000    26.82000000   105.24500000
   C     23.49000000    27.56000000   104.95500000
   O     24.32000000    27.79000000   105.83500000
   H     20.78000000    26.76000000   103.65500000
   H     22.38000000    26.03000000   105.97500000
   H     21.52000000    27.56000000   105.69500000
   N     23.76000000    28.00000000   103.72500000
   C     24.91000000    28.70000000   103.17500000
   C     24.60000000    29.47000000   101.89500000
   O     23.88000000    29.09000000   100.97500000
   C     26.09000000    27.78000000   102.88500000
   C     26.45000000    26.76000000   103.94500000
   C     27.35000000    27.14000000   104.94500000
   C     26.20000000    25.40000000   103.71500000
   C     27.73000000    26.33000000   106.02500000
   C     26.71000000    24.52000000   104.67500000
   C     27.43000000    24.97000000   105.80500000
   O     27.76000000    23.98000000   106.68500000
   H     22.94000000    27.98000000   103.13500000
   H     25.11000000    29.43000000   103.94500000
   H     26.95000000    28.39000000   102.60500000
   H     25.91000000    27.17000000   101.99500000
   H     27.52000000    28.19000000   105.08500000
   H     25.58000000    25.02000000   102.92500000
   H     28.27000000    26.67000000   106.89500000
   H     26.48000000    23.47000000   104.64500000
   H     28.35000000    24.37000000   107.33500000
   N     25.21000000    30.66000000   101.84500000
   C     25.22000000    31.54000000   100.68500000
   C     26.42000000    31.43000000    99.75500000
   O     27.57000000    31.39000000   100.18500000
   C     25.02000000    32.98000000   101.12500000
   C     23.73000000    33.23000000   101.90500000
   C     24.98000000    34.01000000    99.99500000
   C     23.70000000    34.52000000   102.72500000
   H     25.84000000    30.90000000   102.58500000
   H     24.38000000    31.25000000   100.05500000
   H     25.80000000    33.19000000   101.85500000
   H     23.64000000    32.46000000   102.66500000
   H     22.89000000    33.11000000   101.22500000
   H     25.67000000    33.78000000    99.18500000
   H     24.01000000    34.14000000    99.52500000
   H     25.34000000    35.00000000   100.30500000
   H     23.79000000    35.45000000   102.15500000
   H     22.74000000    34.53000000   103.23500000
   H     24.44000000    34.47000000   103.52500000
   N     26.23000000    31.20000000    98.45500000
   C     27.30000000    31.12000000    97.48500000
   C     27.14000000    32.27000000    96.50500000
   O     26.13000000    32.97000000    96.56500000
   C     27.22000000    29.80000000    96.72500000
   O     26.76000000    28.72000000    97.50500000
   H     25.29000000    31.05000000    98.09500000
   H     28.28000000    31.26000000    97.94500000
   H     28.22000000    29.61000000    96.32500000
   H     26.45000000    29.81000000    95.95500000
   H     25.86000000    28.92000000    97.78500000
   N     28.10000000    32.51000000    95.60500000
   C     28.09000000    33.65000000    94.71500000
   C     26.92000000    33.72000000    93.74500000
   O     26.21000000    34.71000000    93.60500000
   C     29.44000000    33.87000000    94.04500000
   H     28.93000000    31.93000000    95.55500000
   H     27.99000000    34.59000000    95.26500000
   H     29.57000000    34.84000000    93.56500000
   H     30.27000000    33.67000000    94.72500000
   H     29.47000000    33.20000000    93.18500000
   N     26.75000000    32.61000000    93.02500000
   C     25.56000000    32.41000000    92.20500000
   C     24.27000000    32.69000000    92.96500000
   O     23.30000000    33.13000000    92.35500000
   C     25.52000000    31.07000000    91.49500000
   H     27.44000000    31.88000000    93.06500000
   H     25.59000000    33.20000000    91.45500000
   H     24.57000000    31.04000000    90.95500000
   H     26.33000000    31.02000000    90.76500000
   H     25.63000000    30.32000000    92.27500000
   N     24.16000000    32.51000000    94.28500000
   C     22.94000000    32.72000000    95.03500000
   C     22.80000000    34.16000000    95.48500000
   O     21.73000000    34.75000000    95.37500000
   C     22.90000000    31.73000000    96.20500000
   C     23.00000000    30.26000000    95.81500000
   C     23.02000000    29.39000000    97.06500000
   O     24.10000000    29.07000000    97.61500000
   O     21.92000000    28.99000000    97.50500000
   H     24.99000000    32.25000000    94.79500000
   H     22.13000000    32.54000000    94.33500000
   H     22.03000000    32.13000000    96.72500000
   H     23.70000000    32.03000000    96.87500000
   H     23.95000000    30.13000000    95.30500000
   H     22.17000000    29.96000000    95.17500000
   N     23.92000000    34.78000000    95.88500000
   C     24.03000000    36.22000000    96.03500000
   H     24.90600000    36.57500000    95.49300000
   H     23.13600000    36.69700000    95.63300000
   H     24.13100000    36.46900000    97.09100000
   H     24.76000000    34.22000000    95.93500000
  Ca     22.84000000    27.26000000    99.23000000
   O     25.61000000    26.56000000    99.39000000
   H     26.35000000    26.77000000    98.82000000
   H     25.99000000    26.02000000   100.08000000
   O     23.71000000    25.14000000    97.50000000
   H     22.98000000    25.19000000    96.89000000
   H     23.58000000    24.30000000    97.96000000

Ca 1.00



