%chk=loop2.apoCaM-CA-Ng.Init295.run50.water4.chk
%nprocshared=20
%mem=10GB
%nosave
#b3lyp/svp scf=(tight,noincore,xqc) Test 
#IOP(5/87=12) Density=Current Pop=(MK,readradii) iop(6/33=2) iop(6/42=6)

loop2.apoCaM-CA-Ng.Init295.run50.water4 

   -2  1 
   C     83.07000000    62.93000000    19.12000000
   C     84.18000000    63.01000000    18.08000000
   O     84.15000000    63.94000000    17.28000000
   H     82.16400000    62.54200000    18.65500000
   H     83.37600000    62.26600000    19.92800000
   H     82.87400000    63.92500000    19.52100000
   N     85.23000000    62.19000000    18.12000000
   C     86.34000000    62.07000000    17.19000000
   C     87.39000000    63.15000000    17.41000000
   O     88.56000000    62.95000000    17.07000000
   C     86.72000000    60.59000000    17.19000000
   C     87.65000000    60.20000000    16.05000000
   O     87.18000000    60.17000000    14.89000000
   O     88.87000000    59.99000000    16.26000000
   H     85.14000000    61.49000000    18.84000000
   H     85.96000000    62.11000000    16.17000000
   H     85.87000000    59.93000000    16.99000000
   H     87.14000000    60.25000000    18.13000000
   N     87.05000000    64.32000000    17.96000000
   C     87.79000000    65.54000000    18.20000000
   C     87.01000000    66.49000000    19.10000000
   O     85.78000000    66.46000000    19.14000000
   C     87.92000000    66.22000000    16.84000000
   H     86.08000000    64.31000000    18.23000000
   H     88.70000000    65.19000000    18.68000000
   H     88.53000000    67.12000000    16.97000000
   H     88.43000000    65.56000000    16.14000000
   H     86.97000000    66.54000000    16.41000000
   N     87.66000000    67.41000000    19.82000000
   C     89.08000000    67.69000000    19.93000000
   C     89.83000000    66.74000000    20.86000000
   O     89.33000000    66.13000000    21.80000000
   C     89.26000000    69.16000000    20.30000000
   C     88.63000000    70.21000000    19.40000000
   O     88.61000000    69.97000000    18.17000000
   O     88.06000000    71.21000000    19.89000000
   H     87.10000000    67.80000000    20.56000000
   H     89.61000000    67.62000000    18.97000000
   H     90.30000000    69.43000000    20.46000000
   H     88.80000000    69.19000000    21.29000000
   N     91.13000000    66.65000000    20.57000000
   C     92.09000000    65.78000000    21.21000000
   C     91.94000000    64.33000000    20.76000000
   O     91.88000000    64.09000000    19.56000000
   H     91.54000000    67.21000000    19.84000000
   H     92.19000000    65.90000000    22.28000000
   H     93.08000000    66.10000000    20.89000000
   N     91.90000000    63.37000000    21.69000000
   C     92.45000000    63.34000000    23.03000000
   C     91.66000000    64.00000000    24.15000000
   O     92.34000000    64.34000000    25.12000000
   C     92.73000000    61.90000000    23.46000000
   C     93.60000000    61.03000000    22.56000000
   N     94.85000000    60.91000000    23.00000000
   O     93.18000000    60.57000000    21.50000000
   H     91.69000000    62.47000000    21.27000000
   H     93.39000000    63.87000000    22.86000000
   H     91.79000000    61.39000000    23.66000000
   H     93.18000000    61.92000000    24.45000000
   H     95.03000000    61.34000000    23.90000000
   H     95.54000000    60.43000000    22.44000000
   N     90.42000000    64.46000000    23.99000000
   C     89.76000000    65.28000000    24.99000000
   C     90.33000000    66.69000000    25.11000000
   O     90.47000000    67.21000000    26.21000000
   H     89.96000000    64.29000000    23.11000000
   H     89.98000000    64.83000000    25.96000000
   H     88.69000000    65.36000000    24.79000000
   N     90.68000000    67.39000000    24.02000000
   C     91.19000000    68.74000000    23.98000000
   C     90.11000000    69.80000000    23.84000000
   O     90.25000000    70.73000000    23.05000000
   C     92.32000000    69.01000000    22.99000000
   C     93.20000000    70.25000000    23.16000000
   O     93.23000000    67.96000000    23.17000000
   H     90.21000000    67.02000000    23.21000000
   H     91.48000000    68.93000000    25.02000000
   H     92.00000000    69.02000000    21.94000000
   H     93.87000000    68.07000000    22.46000000
   H     93.54000000    70.30000000    24.20000000
   H     93.96000000    70.16000000    22.38000000
   H     92.61000000    71.14000000    22.97000000
   N     88.92000000    69.62000000    24.42000000
   C     87.80000000    70.54000000    24.35000000
   C     88.06000000    71.82000000    25.12000000
   O     88.69000000    71.78000000    26.17000000
   C     86.55000000    69.83000000    24.87000000
   C     85.89000000    68.90000000    23.85000000
   C     86.59000000    69.17000000    26.25000000
   C     86.58000000    67.58000000    23.52000000
   H     88.79000000    68.76000000    24.94000000
   H     87.56000000    70.81000000    23.32000000
   H     85.85000000    70.66000000    24.89000000
   H     85.88000000    69.51000000    22.95000000
   H     84.86000000    68.72000000    24.16000000
   H     87.17000000    69.78000000    26.94000000
   H     85.56000000    69.04000000    26.56000000
   H     87.09000000    68.21000000    26.07000000
   H     86.57000000    66.83000000    24.31000000
   H     85.86000000    67.13000000    22.83000000
   H     87.55000000    67.68000000    23.03000000
   N     87.53000000    72.96000000    24.66000000
   C     87.59000000    74.24000000    25.33000000
   C     86.23000000    74.89000000    25.51000000
   O     85.41000000    74.79000000    24.60000000
   C     88.48000000    75.28000000    24.64000000
   C     88.63000000    75.10000000    23.14000000
   O     89.45000000    74.24000000    22.75000000
   O     87.99000000    75.79000000    22.31000000
   H     87.10000000    72.88000000    23.75000000
   H     88.05000000    74.02000000    26.29000000
   H     89.53000000    75.13000000    24.88000000
   H     88.13000000    76.30000000    24.82000000
   N     86.07000000    75.54000000    26.67000000
   C     84.82000000    76.17000000    27.04000000
   C     83.59000000    75.29000000    26.86000000
   O     83.65000000    74.11000000    27.19000000
   C     85.02000000    76.66000000    28.47000000
   C     83.73000000    77.40000000    28.76000000
   C     82.60000000    76.69000000    29.19000000
   C     83.67000000    78.79000000    28.64000000
   C     81.45000000    77.37000000    29.61000000
   C     82.51000000    79.49000000    28.99000000
   C     81.42000000    78.76000000    29.49000000
   H     86.78000000    75.49000000    27.39000000
   H     84.77000000    77.06000000    26.41000000
   H     85.85000000    77.37000000    28.51000000
   H     85.06000000    75.81000000    29.15000000
   H     82.54000000    75.62000000    29.36000000
   H     84.41000000    79.37000000    28.09000000
   H     80.62000000    76.81000000    30.00000000
   H     82.40000000    80.55000000    28.84000000
   H     80.46000000    79.22000000    29.68000000
   N     82.50000000    75.77000000    26.26000000
   C     81.23000000    75.09000000    26.08000000
   C     81.35000000    73.81000000    25.27000000
   O     80.34000000    73.11000000    25.27000000
   C     80.27000000    76.00000000    25.32000000
   C     80.91000000    77.38000000    25.51000000
   C     82.39000000    77.02000000    25.54000000
   H     80.93000000    74.81000000    27.09000000
   H     80.20000000    75.72000000    24.27000000
   H     79.25000000    76.03000000    25.69000000
   H     80.75000000    78.17000000    24.77000000
   H     80.72000000    77.79000000    26.50000000
   H     82.66000000    76.86000000    24.49000000
   H     83.07000000    77.78000000    25.92000000
   N     82.46000000    73.48000000    24.60000000
   C     82.57000000    72.23000000    23.88000000
   C     82.46000000    71.07000000    24.86000000
   O     81.99000000    69.99000000    24.52000000
   C     83.96000000    72.17000000    23.26000000
   C     84.10000000    73.22000000    22.17000000
   C     85.45000000    73.24000000    21.47000000
   O     86.42000000    72.71000000    22.05000000
   O     85.72000000    73.81000000    20.39000000
   H     83.33000000    74.00000000    24.67000000
   H     81.81000000    72.09000000    23.11000000
   H     84.12000000    71.19000000    22.80000000
   H     84.72000000    72.42000000    24.00000000
   H     83.79000000    74.24000000    22.44000000
   H     83.39000000    72.94000000    21.39000000
   N     82.86000000    71.26000000    26.12000000
   C     82.79000000    70.25000000    27.16000000
   H     81.75100000    70.10600000    27.45700000
   H     83.19300000    69.31000000    26.78200000
   H     83.37200000    70.57500000    28.02300000
   H     83.33000000    72.07000000    26.49000000
  Ca     88.28000000    73.74000000    20.49000000
   O     87.56000000    75.53000000    18.68000000
   H     86.84000000    76.12000000    18.91000000
   H     87.79000000    75.78000000    17.79000000
   O     90.76000000    72.47000000    20.99000000
   H     90.34000000    71.81000000    21.55000000
   H     91.24000000    71.96000000    20.34000000
   O     88.76000000    73.07000000    17.95000000
   H     88.59000000    73.42000000    17.08000000
   H     88.61000000    72.13000000    17.87000000
   O     90.43000000    75.39000000    20.17000000
   H     90.67000000    75.87000000    20.96000000
   H     91.27000000    75.18000000    19.76000000

Ca 1.00



