%chk=loop1.apoCaM-CA-Ng.Init293.run72.water5.chk
%nprocshared=20
%mem=10GB
%nosave
#b3lyp/svp scf=(tight,noincore,xqc) Test 
#IOP(5/87=12) Density=Current Pop=(MK,readradii) iop(6/33=2) iop(6/42=6)

loop1.apoCaM-CA-Ng.Init293.run72.water5 

   0  1 
   C    100.27000000    91.47000000    44.70000000
   C    101.79000000    91.51000000    44.77000000
   O    102.44000000    91.61000000    43.73000000
   H     99.88000000    92.48800000    44.70200000
   H     99.96100000    90.96500000    43.78500000
   H     99.88000000    90.93000000    45.56300000
   N    102.44000000    91.43000000    45.93000000
   C    103.87000000    91.56000000    46.12000000
   C    104.72000000    90.47000000    45.46000000
   O    105.94000000    90.44000000    45.59000000
   C    104.18000000    91.65000000    47.61000000
   C    103.45000000    90.68000000    48.52000000
   O    102.23000000    90.88000000    48.71000000
   O    104.07000000    89.73000000    49.05000000
   H    101.89000000    91.21000000    46.75000000
   H    104.22000000    92.50000000    45.70000000
   H    103.91000000    92.66000000    47.91000000
   H    105.26000000    91.60000000    47.77000000
   N    104.09000000    89.47000000    44.84000000
   C    104.80000000    88.40000000    44.18000000
   C    104.94000000    88.57000000    42.68000000
   O    104.00000000    88.45000000    41.90000000
   C    104.06000000    87.09000000    44.43000000
   C    104.11000000    86.62000000    45.88000000
   C    102.96000000    87.14000000    46.75000000
   C    103.08000000    86.51000000    48.14000000
   N    102.51000000    87.48000000    49.09000000
   H    103.10000000    89.35000000    45.01000000
   H    105.81000000    88.32000000    44.58000000
   H    104.35000000    86.29000000    43.74000000
   H    103.01000000    87.29000000    44.21000000
   H    105.04000000    86.94000000    46.35000000
   H    104.16000000    85.53000000    45.85000000
   H    102.08000000    86.75000000    46.25000000
   H    103.03000000    88.22000000    46.85000000
   H    104.13000000    86.41000000    48.40000000
   H    102.55000000    85.56000000    48.18000000
   H    103.07000000    88.30000000    49.26000000
   H    101.68000000    87.91000000    48.70000000
   H    102.17000000    87.09000000    49.96000000
   N    106.14000000    88.80000000    42.14000000
   C    107.40000000    89.15000000    42.77000000
   C    108.30000000    89.97000000    41.85000000
   O    109.19000000    89.43000000    41.20000000
   C    108.13000000    87.91000000    43.28000000
   C    109.48000000    88.15000000    43.94000000
   O    109.66000000    89.13000000    44.70000000
   O    110.50000000    87.48000000    43.65000000
   H    106.13000000    88.96000000    41.14000000
   H    107.12000000    89.82000000    43.58000000
   H    108.27000000    87.25000000    42.43000000
   H    107.54000000    87.28000000    43.94000000
   N    108.12000000    91.29000000    41.73000000
   C    107.31000000    92.16000000    42.57000000
   C    107.29000000    93.61000000    42.13000000
   O    108.36000000    94.14000000    41.84000000
   H    108.61000000    91.73000000    40.97000000
   H    107.60000000    92.13000000    43.62000000
   H    106.29000000    91.77000000    42.57000000
   N    106.13000000    94.23000000    41.90000000
   C    104.76000000    93.77000000    41.97000000
   C    103.78000000    94.81000000    42.50000000
   O    104.09000000    95.99000000    42.40000000
   C    104.22000000    93.37000000    40.60000000
   C    104.92000000    92.14000000    40.05000000
   O    104.57000000    91.02000000    40.48000000
   O    105.89000000    92.30000000    39.27000000
   H    106.24000000    95.23000000    41.77000000
   H    104.72000000    92.92000000    42.65000000
   H    104.35000000    94.27000000    39.99000000
   H    103.14000000    93.23000000    40.56000000
   N    102.65000000    94.36000000    43.04000000
   C    101.70000000    95.24000000    43.70000000
   C    100.66000000    96.03000000    42.92000000
   O     99.79000000    96.63000000    43.55000000
   H    102.43000000    93.37000000    42.94000000
   H    102.36000000    95.90000000    44.26000000
   H    101.15000000    94.56000000    44.35000000
   N    100.64000000    95.87000000    41.60000000
   C     99.56000000    96.11000000    40.66000000
   C     99.20000000    94.80000000    39.99000000
   O    100.03000000    93.89000000    40.06000000
   C    100.10000000    97.06000000    39.59000000
   C    101.41000000    96.64000000    38.92000000
   O    100.44000000    98.31000000    40.15000000
   H    101.39000000    95.30000000    41.23000000
   H     98.65000000    96.50000000    41.12000000
   H     99.36000000    97.28000000    38.82000000
   H    100.62000000    98.95000000    39.46000000
   H    101.68000000    97.45000000    38.25000000
   H    102.22000000    96.48000000    39.62000000
   H    101.34000000    95.75000000    38.30000000
   N     98.02000000    94.69000000    39.37000000
   C     97.42000000    93.45000000    38.93000000
   C     97.00000000    93.48000000    37.47000000
   O     96.09000000    94.22000000    37.10000000
   C     96.26000000    93.06000000    39.85000000
   C     95.46000000    91.88000000    39.32000000
   C     95.28000000    94.16000000    40.25000000
   C     96.18000000    90.55000000    39.07000000
   H     97.40000000    95.48000000    39.32000000
   H     98.14000000    92.64000000    39.00000000
   H     96.91000000    92.78000000    40.68000000
   H     95.07000000    92.12000000    38.33000000
   H     94.67000000    91.66000000    40.03000000
   H     94.47000000    93.81000000    40.89000000
   H     95.83000000    94.87000000    40.88000000
   H     94.94000000    94.62000000    39.32000000
   H     96.92000000    90.30000000    39.83000000
   H     95.46000000    89.74000000    39.15000000
   H     96.72000000    90.59000000    38.13000000
   N     97.68000000    92.72000000    36.60000000
   C     97.24000000    92.52000000    35.23000000
   C     96.73000000    91.11000000    34.98000000
   O     95.93000000    90.97000000    34.05000000
   C     98.29000000    92.84000000    34.17000000
   C     99.51000000    91.93000000    34.20000000
   O     98.85000000    94.11000000    34.39000000
   H     98.49000000    92.23000000    36.94000000
   H     96.43000000    93.21000000    35.00000000
   H     97.86000000    93.00000000    33.18000000
   H     98.07000000    94.65000000    34.51000000
   H    100.04000000    91.92000000    35.15000000
   H     99.25000000    90.90000000    33.96000000
   H    100.21000000    92.25000000    33.43000000
   N     97.07000000    90.05000000    35.71000000
   C     96.68000000    88.71000000    35.34000000
   C     97.46000000    88.06000000    34.21000000
   O     98.06000000    88.64000000    33.31000000
   C     95.17000000    88.49000000    35.21000000
   C     94.29000000    89.18000000    36.25000000
   O     94.90000000    87.13000000    35.43000000
   H     97.81000000    90.27000000    36.37000000
   H     97.04000000    88.15000000    36.21000000
   H     94.76000000    88.81000000    34.25000000
   H     94.41000000    87.10000000    36.25000000
   H     94.60000000    88.80000000    37.23000000
   H     94.31000000    90.26000000    36.17000000
   H     93.24000000    88.90000000    36.18000000
   N     97.70000000    86.76000000    34.39000000
   C     98.30000000    85.90000000    33.39000000
   C     99.42000000    84.95000000    33.81000000
   O    100.10000000    84.46000000    32.91000000
   C     97.21000000    85.01000000    32.81000000
   C     95.99000000    85.68000000    32.19000000
   C     96.30000000    86.48000000    30.93000000
   C     95.16000000    86.60000000    29.92000000
   N     93.92000000    87.20000000    30.43000000
   H     97.29000000    86.33000000    35.21000000
   H     98.68000000    86.54000000    32.59000000
   H     96.86000000    84.35000000    33.61000000
   H     97.59000000    84.34000000    32.04000000
   H     95.35000000    86.19000000    32.91000000
   H     95.36000000    84.83000000    31.92000000
   H     97.23000000    86.15000000    30.47000000
   H     96.36000000    87.52000000    31.27000000
   H     94.98000000    85.63000000    29.47000000
   H     95.41000000    87.27000000    29.09000000
   H     93.54000000    86.66000000    31.20000000
   H     94.01000000    88.15000000    30.75000000
   H     93.22000000    87.10000000    29.71000000
   N     99.86000000    84.62000000    35.02000000
   C     99.42000000    84.96000000    36.36000000
   C     97.97000000    84.63000000    36.69000000
   O     97.14000000    85.49000000    36.98000000
   C    100.09000000    86.27000000    36.76000000
   C     99.89000000    86.59000000    38.24000000
   C    100.88000000    87.58000000    38.84000000
   O    101.41000000    87.31000000    39.94000000
   O    101.20000000    88.59000000    38.18000000
   H    100.66000000    84.00000000    35.08000000
   H     99.92000000    84.12000000    36.85000000
   H     99.61000000    87.11000000    36.26000000
   H    101.16000000    86.23000000    36.52000000
   H     99.86000000    85.69000000    38.86000000
   H     98.90000000    87.04000000    38.29000000
   N     97.52000000    83.39000000    36.55000000
   C     96.11000000    83.05000000    36.49000000
   H     95.55000000    83.89500000    36.09000000
   H     95.97200000    82.18400000    35.84300000
   H     95.74900000    82.81700000    37.49200000
   H     98.18000000    82.81000000    36.05000000
  Ca    103.49100000    89.03000000    39.38000000
   O    103.29100000    91.08000000    37.67000000
   H    102.55100000    91.68000000    37.71000000
   H    103.79100000    91.35000000    36.90000000
   O    105.98100000    89.63000000    38.25000000
   H    106.30100000    90.48000000    38.54000000
   H    106.27100000    89.56000000    37.33000000
   O    103.87100000    87.60000000    37.20000000
   H    103.76100000    86.70000000    37.50000000
   H    103.92100000    87.54000000    36.25000000
   O    101.94100000    90.92000000    40.85000000
   H    101.27100000    91.03000000    41.53000000
   H    102.72100000    91.33000000    41.23000000
   O    105.35100000    87.00000000    39.70000000
   H    106.10100000    87.14000000    39.13000000
   H    105.67100000    86.40000000    40.37000000

Ca 1.00



