%chk=loop3.apoCaM-CA-Ng.Init295.run72.water3.chk
%nprocshared=20
%mem=10GB
%nosave
#b3lyp/svp scf=(tight,noincore,xqc) Test 
#IOP(5/87=12) Density=Current Pop=(MK,readradii) iop(6/33=2) iop(6/42=6)

loop3.apoCaM-CA-Ng.Init295.run72.water3 

   0  1 
   C     -5.78000000   -22.17000000    34.49000000
   C     -7.07000000   -22.89000000    34.14000000
   O     -8.04000000   -22.89000000    34.90000000
   H     -5.01700000   -22.41200000    33.75000000
   H     -5.95300000   -21.09400000    34.49400000
   H     -5.44200000   -22.48800000    35.47600000
   N     -7.13000000   -23.55000000    32.98000000
   C     -8.27000000   -24.12000000    32.29000000
   C     -8.05000000   -25.63000000    32.27000000
   O     -7.02000000   -26.12000000    31.81000000
   C     -8.41000000   -23.36000000    30.98000000
   C     -9.83000000   -23.60000000    30.50000000
   O    -10.59000000   -24.46000000    31.00000000
   O    -10.21000000   -22.97000000    29.49000000
   H     -6.24000000   -23.57000000    32.50000000
   H     -9.16000000   -23.89000000    32.88000000
   H     -7.62000000   -23.49000000    30.24000000
   H     -8.42000000   -22.31000000    31.28000000
   N     -9.06000000   -26.27000000    32.87000000
   C     -9.18000000   -27.71000000    32.94000000
   C     -9.37000000   -28.47000000    31.64000000
   O     -9.00000000   -29.64000000    31.53000000
   C    -10.23000000   -28.09000000    33.98000000
   C    -11.65000000   -27.62000000    33.68000000
   C    -12.43000000   -27.62000000    34.99000000
   C    -13.87000000   -27.17000000    34.75000000
   N    -14.81000000   -28.14000000    34.17000000
   H     -9.67000000   -25.74000000    33.46000000
   H     -8.31000000   -28.14000000    33.44000000
   H     -9.82000000   -27.58000000    34.86000000
   H    -10.30000000   -29.16000000    34.12000000
   H    -12.09000000   -28.41000000    33.07000000
   H    -11.69000000   -26.61000000    33.27000000
   H    -11.93000000   -27.03000000    35.76000000
   H    -12.42000000   -28.67000000    35.27000000
   H    -13.71000000   -26.26000000    34.17000000
   H    -14.22000000   -26.86000000    35.74000000
   H    -14.82000000   -28.99000000    34.71000000
   H    -15.76000000   -27.78000000    34.13000000
   H    -14.60000000   -28.38000000    33.21000000
   N    -10.00000000   -27.80000000    30.67000000
   C    -10.13000000   -28.28000000    29.31000000
   C     -9.24000000   -27.51000000    28.34000000
   O     -9.04000000   -27.94000000    27.20000000
   C    -11.60000000   -28.11000000    28.93000000
   C    -12.09000000   -26.67000000    29.02000000
   O    -11.63000000   -25.82000000    28.23000000
   O    -12.99000000   -26.31000000    29.81000000
   H    -10.26000000   -26.85000000    30.89000000
   H     -9.87000000   -29.32000000    29.17000000
   H    -12.25000000   -28.76000000    29.52000000
   H    -11.72000000   -28.40000000    27.89000000
   N     -8.58000000   -26.44000000    28.79000000
   C     -7.53000000   -25.80000000    28.02000000
   C     -8.02000000   -25.09000000    26.77000000
   O     -7.30000000   -24.57000000    25.92000000
   H     -8.66000000   -26.00000000    29.70000000
   H     -6.79000000   -26.47000000    27.60000000
   H     -7.03000000   -25.03000000    28.62000000
   N     -9.35000000   -24.93000000    26.68000000
   C    -10.02000000   -24.28000000    25.58000000
   C    -10.84000000   -23.06000000    25.98000000
   O    -11.43000000   -22.98000000    27.05000000
   C    -10.87000000   -25.34000000    24.88000000
   C    -11.59000000   -25.01000000    23.58000000
   N    -11.55000000   -25.91000000    22.60000000
   O    -12.30000000   -24.02000000    23.49000000
   H     -9.94000000   -25.46000000    27.30000000
   H     -9.28000000   -23.81000000    24.93000000
   H    -11.70000000   -25.59000000    25.55000000
   H    -10.37000000   -26.30000000    24.89000000
   H    -10.76000000   -26.55000000    22.62000000
   H    -12.07000000   -25.84000000    21.73000000
   N    -10.99000000   -22.06000000    25.11000000
   C    -11.83000000   -20.89000000    25.30000000
   C    -13.29000000   -21.18000000    25.58000000
   O    -13.92000000   -20.37000000    26.26000000
   H    -10.43000000   -22.16000000    24.28000000
   H    -11.63000000   -20.22000000    24.45000000
   H    -11.48000000   -20.32000000    26.16000000
   N    -13.91000000   -22.28000000    25.16000000
   C    -15.28000000   -22.65000000    25.47000000
   C    -15.47000000   -22.84000000    26.97000000
   O    -14.56000000   -23.38000000    27.60000000
   C    -15.68000000   -23.92000000    24.73000000
   C    -17.17000000   -24.16000000    24.86000000
   C    -17.62000000   -24.89000000    25.97000000
   C    -18.12000000   -23.68000000    23.95000000
   C    -18.97000000   -25.08000000    26.26000000
   C    -19.47000000   -23.80000000    24.26000000
   C    -19.92000000   -24.46000000    25.43000000
   O    -21.27000000   -24.58000000    25.65000000
   H    -13.33000000   -23.05000000    24.87000000
   H    -15.98000000   -21.90000000    25.12000000
   H    -15.19000000   -24.74000000    25.25000000
   H    -15.28000000   -23.79000000    23.72000000
   H    -17.00000000   -25.29000000    26.76000000
   H    -17.82000000   -23.23000000    23.01000000
   H    -19.28000000   -25.44000000    27.23000000
   H    -20.20000000   -23.51000000    23.52000000
   H    -21.75000000   -24.21000000    24.90000000
   N    -16.56000000   -22.23000000    27.46000000
   C    -17.04000000   -22.28000000    28.82000000
   C    -17.44000000   -23.66000000    29.34000000
   O    -16.65000000   -24.60000000    29.29000000
   C    -16.15000000   -21.42000000    29.71000000
   C    -16.44000000   -21.45000000    31.21000000
   C    -16.04000000   -19.98000000    29.20000000
   C    -17.73000000   -20.76000000    31.65000000
   H    -17.07000000   -21.63000000    26.82000000
   H    -17.93000000   -21.65000000    28.87000000
   H    -15.13000000   -21.79000000    29.59000000
   H    -15.59000000   -21.06000000    31.76000000
   H    -16.67000000   -22.46000000    31.52000000
   H    -15.47000000   -19.93000000    28.26000000
   H    -17.05000000   -19.60000000    29.10000000
   H    -15.50000000   -19.41000000    29.95000000
   H    -17.96000000   -20.95000000    32.70000000
   H    -17.66000000   -19.69000000    31.47000000
   H    -18.52000000   -21.09000000    30.97000000
   N    -18.68000000   -23.80000000    29.81000000
   C    -19.19000000   -24.99000000    30.45000000
   C    -20.67000000   -25.26000000    30.26000000
   O    -21.14000000   -26.40000000    30.25000000
   C    -18.90000000   -24.98000000    31.95000000
   O    -19.28000000   -23.82000000    32.67000000
   H    -19.22000000   -22.94000000    29.84000000
   H    -18.63000000   -25.88000000    30.15000000
   H    -17.82000000   -25.07000000    32.03000000
   H    -19.33000000   -25.85000000    32.45000000
   H    -18.74000000   -23.83000000    33.45000000
   N    -21.44000000   -24.18000000    30.11000000
   C    -22.86000000   -23.93000000    29.98000000
   C    -23.64000000   -24.56000000    31.13000000
   O    -24.56000000   -25.34000000    30.91000000
   C    -23.46000000   -24.27000000    28.61000000
   H    -20.91000000   -23.32000000    30.17000000
   H    -22.98000000   -22.86000000    30.14000000
   H    -24.34000000   -23.68000000    28.40000000
   H    -22.78000000   -24.00000000    27.81000000
   H    -23.65000000   -25.34000000    28.65000000
   N    -23.24000000   -24.36000000    32.38000000
   C    -22.47000000   -23.33000000    33.06000000
   C    -23.44000000   -22.23000000    33.47000000
   O    -24.66000000   -22.37000000    33.48000000
   C    -21.87000000   -24.07000000    34.25000000
   H    -23.84000000   -24.81000000    33.06000000
   H    -21.66000000   -22.95000000    32.44000000
   H    -21.55000000   -25.08000000    33.98000000
   H    -21.01000000   -23.54000000    34.65000000
   H    -22.68000000   -24.18000000    34.97000000
   N    -22.89000000   -21.06000000    33.81000000
   C    -21.50000000   -20.66000000    33.88000000
   C    -21.26000000   -19.28000000    33.30000000
   O    -20.38000000   -19.15000000    32.44000000
   C    -20.94000000   -20.62000000    35.30000000
   C    -19.45000000   -20.32000000    35.46000000
   C    -19.00000000   -20.42000000    36.90000000
   O    -18.42000000   -21.49000000    37.20000000
   O    -19.29000000   -19.51000000    37.71000000
   H    -23.56000000   -20.37000000    34.12000000
   H    -20.83000000   -21.38000000    33.41000000
   H    -21.03000000   -21.59000000    35.78000000
   H    -21.55000000   -19.96000000    35.93000000
   H    -19.34000000   -19.28000000    35.17000000
   H    -18.83000000   -20.96000000    34.83000000
   N    -22.10000000   -18.29000000    33.60000000
   C    -21.98000000   -16.91000000    33.18000000
   H    -20.98400000   -16.74100000    32.77000000
   H    -22.72800000   -16.69600000    32.41600000
   H    -22.13600000   -16.25400000    34.03600000
   H    -22.87000000   -18.55000000    34.21000000
  Ca    -12.69800000   -23.73800000    29.49000000
   O    -14.31800000   -24.18800000    31.51000000
   H    -14.41800000   -23.87800000    32.41000000
   H    -15.16800000   -24.56800000    31.29000000
   O    -12.23800000   -22.05800000    31.40000000
   H    -12.03800000   -22.50800000    32.22000000
   H    -12.21800000   -21.12800000    31.62000000
   O    -12.87800000   -21.07800000    28.78000000
   H    -13.23800000   -20.69800000    27.98000000
   H    -12.05800000   -20.59800000    28.92000000

Ca 1.00



