%chk=loop2.holoCaM.run90.water1.chk
%nprocshared=20
%mem=10GB
%nosave
#b3lyp/svp scf=(tight,noincore,xqc) Test 
#IOP(5/87=12) Density=Current Pop=(MK,readradii) iop(6/33=2) iop(6/42=6)

loop2.holoCaM.run90.water1 

   -2  1 
   C     53.74000000    83.06000000    35.14000000
   C     52.94000000    83.52000000    36.35000000
   O     52.42000000    82.68000000    37.08000000
   H     54.72900000    82.73300000    35.46200000
   H     53.22400000    82.23100000    34.65600000
   H     53.84200000    83.88600000    34.43600000
   N     52.90000000    84.84000000    36.55000000
   C     52.02000000    85.44000000    37.54000000
   C     50.58000000    85.11000000    37.17000000
   O     50.08000000    85.53000000    36.13000000
   C     52.30000000    86.93000000    37.61000000
   C     51.56000000    87.67000000    38.72000000
   O     50.93000000    87.06000000    39.61000000
   O     51.74000000    88.90000000    38.76000000
   H     53.13000000    85.46000000    35.79000000
   H     52.22000000    84.93000000    38.49000000
   H     52.06000000    87.26000000    36.60000000
   H     53.37000000    87.05000000    37.81000000
   N     49.93000000    84.38000000    38.08000000
   C     48.63000000    83.81000000    37.78000000
   C     47.50000000    84.56000000    38.48000000
   O     46.36000000    84.11000000    38.42000000
   C     48.56000000    82.34000000    38.19000000
   H     50.48000000    84.10000000    38.88000000
   H     48.28000000    83.93000000    36.76000000
   H     48.60000000    82.32000000    39.28000000
   H     47.62000000    81.92000000    37.83000000
   H     49.41000000    81.78000000    37.80000000
   N     47.71000000    85.68000000    39.17000000
   C     46.66000000    86.43000000    39.83000000
   C     46.84000000    87.93000000    39.66000000
   O     45.84000000    88.62000000    39.52000000
   C     46.55000000    86.07000000    41.31000000
   C     47.81000000    86.27000000    42.15000000
   O     47.68000000    86.66000000    43.33000000
   O     48.94000000    86.01000000    41.69000000
   H     48.63000000    86.11000000    39.16000000
   H     45.73000000    86.15000000    39.34000000
   H     46.39000000    85.00000000    41.31000000
   H     45.71000000    86.61000000    41.74000000
   N     48.06000000    88.44000000    39.50000000
   C     48.28000000    89.75000000    38.91000000
   C     48.81000000    90.73000000    39.95000000
   O     48.05000000    91.51000000    40.52000000
   H     48.89000000    87.86000000    39.46000000
   H     47.38000000    90.17000000    38.47000000
   H     49.02000000    89.55000000    38.15000000
   N     50.10000000    90.61000000    40.27000000
   C     50.71000000    91.39000000    41.32000000
   C     52.12000000    91.85000000    40.96000000
   O     52.66000000    92.75000000    41.59000000
   C     50.49000000    90.75000000    42.69000000
   C     51.45000000    89.60000000    42.97000000
   N     51.98000000    89.48000000    44.19000000
   O     51.80000000    88.87000000    42.05000000
   H     50.65000000    89.84000000    39.92000000
   H     50.14000000    92.31000000    41.31000000
   H     49.44000000    90.45000000    42.78000000
   H     50.74000000    91.50000000    43.44000000
   H     51.75000000    90.13000000    44.93000000
   H     52.57000000    88.67000000    44.35000000
   N     52.75000000    91.10000000    40.05000000
   C     54.12000000    91.24000000    39.59000000
   C     55.13000000    90.53000000    40.49000000
   O     56.28000000    90.96000000    40.46000000
   H     52.16000000    90.42000000    39.58000000
   H     54.50000000    92.26000000    39.65000000
   H     54.24000000    90.95000000    38.55000000
   N     54.76000000    89.50000000    41.25000000
   C     55.54000000    88.80000000    42.25000000
   C     55.02000000    87.38000000    42.40000000
   O     53.85000000    87.04000000    42.22000000
   C     55.41000000    89.54000000    43.58000000
   C     56.17000000    88.87000000    44.72000000
   O     55.70000000    90.92000000    43.55000000
   H     53.85000000    89.09000000    41.08000000
   H     56.57000000    88.93000000    41.92000000
   H     54.36000000    89.42000000    43.86000000
   H     56.65000000    91.01000000    43.43000000
   H     55.77000000    87.89000000    44.99000000
   H     57.24000000    88.85000000    44.53000000
   H     56.02000000    89.46000000    45.62000000
   N     56.03000000    86.53000000    42.56000000
   C     56.05000000    85.08000000    42.45000000
   C     55.78000000    84.43000000    43.79000000
   O     56.63000000    84.48000000    44.67000000
   C     57.38000000    84.69000000    41.80000000
   C     57.61000000    85.23000000    40.40000000
   C     57.54000000    83.17000000    41.80000000
   C     56.53000000    85.03000000    39.35000000
   H     56.87000000    86.98000000    42.89000000
   H     55.30000000    84.76000000    41.73000000
   H     58.21000000    84.97000000    42.45000000
   H     58.50000000    84.80000000    39.93000000
   H     57.70000000    86.30000000    40.60000000
   H     57.31000000    82.65000000    42.73000000
   H     56.79000000    82.84000000    41.08000000
   H     58.56000000    83.06000000    41.43000000
   H     56.76000000    85.57000000    38.43000000
   H     56.35000000    83.97000000    39.17000000
   H     55.59000000    85.45000000    39.71000000
   N     54.67000000    83.68000000    43.73000000
   C     54.30000000    82.61000000    44.62000000
   C     54.87000000    81.26000000    44.19000000
   O     55.26000000    81.04000000    43.05000000
   C     52.78000000    82.51000000    44.66000000
   C     51.97000000    83.78000000    44.87000000
   O     51.76000000    84.63000000    43.98000000
   O     51.33000000    83.91000000    45.93000000
   H     54.16000000    83.74000000    42.86000000
   H     54.76000000    82.78000000    45.60000000
   H     52.57000000    81.74000000    45.40000000
   H     52.48000000    82.18000000    43.67000000
   N     54.95000000    80.28000000    45.09000000
   C     55.51000000    78.97000000    44.80000000
   C     54.94000000    78.32000000    43.55000000
   O     55.73000000    77.93000000    42.69000000
   C     55.44000000    78.12000000    46.06000000
   C     56.01000000    76.73000000    45.87000000
   C     57.33000000    76.54000000    45.46000000
   C     55.14000000    75.65000000    46.07000000
   C     57.83000000    75.26000000    45.18000000
   C     55.69000000    74.39000000    45.79000000
   C     57.02000000    74.15000000    45.42000000
   H     54.74000000    80.47000000    46.06000000
   H     56.56000000    79.10000000    44.57000000
   H     54.40000000    78.00000000    46.35000000
   H     55.96000000    78.66000000    46.85000000
   H     57.99000000    77.40000000    45.40000000
   H     54.10000000    75.81000000    46.33000000
   H     58.86000000    75.17000000    44.87000000
   H     55.00000000    73.57000000    45.91000000
   H     57.34000000    73.16000000    45.15000000
   N     53.62000000    78.23000000    43.36000000
   C     53.14000000    77.52000000    42.19000000
   C     53.39000000    78.30000000    40.90000000
   O     53.35000000    77.65000000    39.86000000
   C     51.65000000    77.33000000    42.43000000
   C     51.40000000    77.60000000    43.91000000
   C     52.52000000    78.59000000    44.23000000
   H     53.56000000    76.52000000    42.23000000
   H     50.91000000    77.99000000    41.96000000
   H     51.36000000    76.31000000    42.16000000
   H     50.42000000    78.06000000    43.86000000
   H     51.36000000    76.69000000    44.51000000
   H     52.27000000    79.62000000    43.98000000
   H     52.78000000    78.54000000    45.29000000
   N     53.83000000    79.56000000    40.94000000
   C     54.21000000    80.35000000    39.79000000
   C     55.71000000    80.12000000    39.60000000
   O     56.14000000    80.05000000    38.45000000
   C     53.90000000    81.81000000    40.09000000
   C     52.44000000    82.08000000    40.46000000
   C     52.10000000    83.53000000    40.73000000
   O     52.97000000    84.41000000    40.90000000
   O     50.91000000    83.90000000    40.87000000
   H     53.94000000    80.05000000    41.82000000
   H     53.75000000    80.02000000    38.86000000
   H     54.15000000    82.46000000    39.25000000
   H     54.52000000    82.21000000    40.88000000
   H     52.17000000    81.52000000    41.35000000
   H     51.75000000    81.76000000    39.68000000
   N     56.53000000    79.90000000    40.63000000
   C     57.93000000    79.53000000    40.58000000
   H     58.51300000    80.23500000    41.17300000
   H     58.05600000    78.52500000    40.98400000
   H     58.27600000    79.55200000    39.54700000
   H     56.13000000    79.94000000    41.56000000
  Ca     51.37000000    86.21000000    41.98000000
   O     50.18000000    87.21000000    44.17000000
   H     49.30000000    87.25000000    43.81000000
   H     50.21000000    87.92000000    44.81000000

Ca 1.00



