%chk=loop3.holoCaM.run20.water2.chk
%nprocshared=20
%mem=10GB
%nosave
#b3lyp/svp scf=(tight,noincore,xqc) Test 
#IOP(5/87=12) Density=Current Pop=(MK,readradii) iop(6/33=2) iop(6/42=6)

loop3.holoCaM.run20.water2 

   0  1 
   C     76.41000000    35.68000000    28.54000000
   C     77.81000000    35.24000000    28.14000000
   O     78.20000000    34.10000000    28.40000000
   H     75.70900000    34.86400000    28.36400000
   H     76.40000000    35.94600000    29.59700000
   H     76.11600000    36.54500000    27.94500000
   N     78.74000000    36.09000000    27.69000000
   C     80.16000000    35.79000000    27.70000000
   C     80.72000000    36.12000000    29.08000000
   O     80.92000000    37.28000000    29.40000000
   C     80.77000000    36.57000000    26.54000000
   C     82.28000000    36.60000000    26.41000000
   O     82.95000000    35.73000000    27.01000000
   O     82.89000000    37.29000000    25.57000000
   H     78.52000000    37.06000000    27.56000000
   H     80.36000000    34.74000000    27.50000000
   H     80.50000000    37.61000000    26.71000000
   H     80.29000000    36.39000000    25.57000000
   N     80.94000000    35.10000000    29.92000000
   C     81.05000000    35.34000000    31.34000000
   C     82.44000000    35.74000000    31.83000000
   O     82.58000000    36.29000000    32.92000000
   C     80.43000000    34.18000000    32.11000000
   C     78.98000000    33.84000000    31.78000000
   C     78.03000000    35.04000000    31.86000000
   C     78.01000000    35.74000000    33.21000000
   N     77.06000000    36.86000000    33.19000000
   H     80.96000000    34.16000000    29.57000000
   H     80.38000000    36.17000000    31.57000000
   H     80.43000000    34.44000000    33.17000000
   H     81.07000000    33.30000000    32.02000000
   H     78.71000000    33.10000000    32.53000000
   H     78.88000000    33.29000000    30.84000000
   H     77.11000000    34.48000000    31.73000000
   H     78.37000000    35.73000000    31.08000000
   H     78.97000000    36.06000000    33.62000000
   H     77.73000000    34.99000000    33.95000000
   H     77.26000000    37.47000000    32.41000000
   H     76.12000000    36.53000000    33.01000000
   H     77.15000000    37.42000000    34.03000000
   N     83.44000000    35.57000000    30.96000000
   C     84.81000000    36.02000000    31.09000000
   C     85.05000000    37.25000000    30.23000000
   O     86.22000000    37.61000000    30.12000000
   C     85.85000000    34.93000000    30.88000000
   C     85.87000000    34.27000000    29.51000000
   O     84.95000000    34.49000000    28.70000000
   O     86.73000000    33.37000000    29.35000000
   H     83.11000000    35.11000000    30.12000000
   H     84.92000000    36.37000000    32.12000000
   H     85.74000000    34.21000000    31.69000000
   H     86.84000000    35.37000000    31.03000000
   N     84.03000000    37.82000000    29.59000000
   C     84.05000000    38.85000000    28.57000000
   C     85.24000000    38.89000000    27.61000000
   O     85.84000000    39.94000000    27.41000000
   H     83.13000000    37.40000000    29.75000000
   H     84.05000000    39.84000000    29.01000000
   H     83.11000000    38.84000000    28.03000000
   N     85.53000000    37.72000000    27.05000000
   C     86.69000000    37.56000000    26.19000000
   C     86.49000000    37.86000000    24.71000000
   O     87.45000000    38.03000000    23.96000000
   C     87.36000000    36.21000000    26.42000000
   C     86.86000000    35.11000000    25.49000000
   N     87.80000000    34.62000000    24.67000000
   O     85.71000000    34.70000000    25.44000000
   H     85.00000000    36.91000000    27.35000000
   H     87.39000000    38.32000000    26.51000000
   H     86.98000000    35.86000000    27.37000000
   H     88.45000000    36.34000000    26.41000000
   H     88.75000000    34.95000000    24.74000000
   H     87.52000000    33.80000000    24.15000000
   N     85.26000000    37.88000000    24.20000000
   C     84.79000000    38.04000000    22.84000000
   C     83.96000000    36.94000000    22.20000000
   O     83.55000000    37.04000000    21.05000000
   H     84.56000000    37.72000000    24.91000000
   H     85.62000000    38.27000000    22.16000000
   H     84.19000000    38.95000000    22.82000000
   N     83.64000000    35.87000000    22.93000000
   C     83.01000000    34.67000000    22.41000000
   C     82.06000000    33.94000000    23.36000000
   O     82.24000000    33.95000000    24.57000000
   C     84.06000000    33.65000000    21.96000000
   C     85.17000000    34.14000000    21.06000000
   C     86.26000000    34.86000000    21.57000000
   C     85.01000000    33.89000000    19.69000000
   C     87.17000000    35.36000000    20.63000000
   C     85.96000000    34.31000000    18.76000000
   C     87.03000000    35.09000000    19.25000000
   O     88.03000000    35.46000000    18.41000000
   H     83.86000000    35.92000000    23.92000000
   H     82.51000000    34.87000000    21.47000000
   H     83.57000000    32.82000000    21.46000000
   H     84.59000000    33.18000000    22.79000000
   H     86.26000000    35.07000000    22.63000000
   H     84.11000000    33.36000000    19.41000000
   H     88.10000000    35.82000000    20.92000000
   H     85.98000000    33.99000000    17.73000000
   H     87.79000000    35.33000000    17.49000000
   N     81.11000000    33.22000000    22.77000000
   C     80.26000000    32.26000000    23.45000000
   C     80.82000000    30.87000000    23.16000000
   O     81.21000000    30.50000000    22.06000000
   C     78.83000000    32.41000000    22.93000000
   C     78.29000000    33.83000000    23.05000000
   C     77.91000000    31.44000000    23.67000000
   C     77.94000000    34.50000000    24.37000000
   H     81.18000000    33.17000000    21.77000000
   H     80.28000000    32.42000000    24.53000000
   H     78.87000000    32.14000000    21.87000000
   H     77.45000000    33.91000000    22.37000000
   H     79.04000000    34.48000000    22.59000000
   H     78.21000000    30.41000000    23.46000000
   H     78.02000000    31.71000000    24.72000000
   H     76.90000000    31.59000000    23.30000000
   H     78.08000000    35.58000000    24.31000000
   H     76.93000000    34.21000000    24.64000000
   H     78.60000000    34.15000000    25.17000000
   N     80.74000000    30.02000000    24.18000000
   C     81.19000000    28.64000000    24.22000000
   C     80.14000000    27.63000000    24.67000000
   O     79.08000000    28.03000000    25.14000000
   C     82.38000000    28.47000000    25.15000000
   O     82.11000000    28.71000000    26.51000000
   H     80.31000000    30.29000000    25.05000000
   H     81.54000000    28.31000000    23.24000000
   H     83.12000000    29.25000000    24.94000000
   H     82.90000000    27.51000000    25.07000000
   H     82.05000000    29.67000000    26.61000000
   N     80.31000000    26.31000000    24.56000000
   C     79.35000000    25.27000000    24.90000000
   C     78.61000000    25.30000000    26.23000000
   O     77.46000000    24.88000000    26.33000000
   C     79.94000000    23.87000000    24.76000000
   H     81.24000000    26.06000000    24.26000000
   H     78.64000000    25.32000000    24.08000000
   H     80.84000000    23.73000000    25.36000000
   H     79.21000000    23.08000000    24.96000000
   H     80.34000000    23.85000000    23.74000000
   N     79.25000000    25.85000000    27.26000000
   C     78.74000000    25.92000000    28.61000000
   C     78.17000000    27.32000000    28.78000000
   O     77.13000000    27.39000000    29.43000000
   C     79.85000000    25.57000000    29.60000000
   H     80.19000000    26.21000000    27.13000000
   H     77.98000000    25.15000000    28.71000000
   H     80.75000000    26.16000000    29.43000000
   H     79.66000000    25.91000000    30.62000000
   H     80.16000000    24.53000000    29.52000000
   N     78.79000000    28.34000000    28.18000000
   C     78.17000000    29.65000000    28.14000000
   C     76.84000000    29.55000000    27.39000000
   O     75.89000000    30.24000000    27.73000000
   C     79.16000000    30.67000000    27.59000000
   C     80.30000000    30.91000000    28.58000000
   C     81.39000000    31.76000000    27.94000000
   O     81.82000000    32.74000000    28.57000000
   O     81.95000000    31.28000000    26.93000000
   H     79.63000000    28.19000000    27.64000000
   H     77.96000000    29.96000000    29.16000000
   H     78.64000000    31.63000000    27.51000000
   H     79.61000000    30.39000000    26.64000000
   H     80.68000000    29.95000000    28.93000000
   H     79.93000000    31.41000000    29.47000000
   N     76.71000000    28.68000000    26.39000000
   C     75.49000000    28.56000000    25.61000000
   H     74.73400000    29.23400000    26.01300000
   H     75.69400000    28.82300000    24.57200000
   H     75.12500000    27.53400000    25.66100000
   H     77.55000000    28.27000000    26.01000000
  Ca     83.61000000    33.39000000    26.83000000
   O     85.12000000    31.58000000    27.90000000
   H     85.03000000    30.63000000    27.92000000
   H     85.64000000    31.78000000    28.68000000
   O     84.81000000    31.96000000    25.08000000
   H     85.70000000    31.88000000    25.42000000
   H     84.84000000    31.54000000    24.22000000

Ca 1.00



