%chk=loop1.apoCaM-CA-Ng.Init295.run64.water5.chk
%nprocshared=20
%mem=10GB
%nosave
#b3lyp/svp scf=(tight,noincore,xqc) Test 
#IOP(5/87=12) Density=Current Pop=(MK,readradii) iop(6/33=2) iop(6/42=6)

loop1.apoCaM-CA-Ng.Init295.run64.water5 

   0  1 
   C     79.55000000    -7.67000000    50.19000000
   C     78.72000000    -6.45000000    49.81000000
   O     77.49000000    -6.54000000    49.81000000
   H     80.48100000    -7.34500000    50.65500000
   H     78.99000000    -8.28700000    50.89300000
   H     79.77500000    -8.25000000    49.29500000
   N     79.28000000    -5.29000000    49.44000000
   C     78.54000000    -4.10000000    49.07000000
   C     79.02000000    -3.53000000    47.75000000
   O     80.15000000    -3.73000000    47.29000000
   C     78.75000000    -3.08000000    50.19000000
   C     78.75000000    -3.67000000    51.59000000
   O     79.59000000    -3.29000000    52.43000000
   O     77.74000000    -4.34000000    51.89000000
   H     80.29000000    -5.28000000    49.38000000
   H     77.48000000    -4.36000000    49.04000000
   H     77.97000000    -2.31000000    50.14000000
   H     79.70000000    -2.61000000    49.95000000
   N     78.16000000    -2.78000000    47.05000000
   C     78.49000000    -2.19000000    45.77000000
   C     79.01000000    -0.76000000    45.86000000
   O     79.65000000    -0.23000000    44.95000000
   C     77.23000000    -2.20000000    44.91000000
   C     77.51000000    -1.83000000    43.46000000
   C     76.24000000    -1.85000000    42.61000000
   C     76.48000000    -1.19000000    41.26000000
   N     75.35000000    -1.45000000    40.35000000
   H     77.21000000    -2.66000000    47.37000000
   H     79.25000000    -2.84000000    45.34000000
   H     76.41000000    -1.62000000    45.33000000
   H     76.80000000    -3.20000000    44.87000000
   H     78.20000000    -2.49000000    42.93000000
   H     77.96000000    -0.84000000    43.43000000
   H     75.51000000    -1.26000000    43.17000000
   H     75.76000000    -2.80000000    42.40000000
   H     77.39000000    -1.64000000    40.85000000
   H     76.59000000    -0.12000000    41.38000000
   H     75.44000000    -0.93000000    39.50000000
   H     75.29000000    -2.44000000    40.13000000
   H     74.42000000    -1.20000000    40.66000000
   N     78.78000000    -0.04000000    46.96000000
   C     79.50000000     1.18000000    47.29000000
   C     79.64000000     1.17000000    48.81000000
   O     78.70000000     0.70000000    49.44000000
   C     78.79000000     2.35000000    46.61000000
   C     79.60000000     3.63000000    46.62000000
   O     79.05000000     4.57000000    46.01000000
   O     80.54000000     3.89000000    47.41000000
   H     78.09000000    -0.43000000    47.57000000
   H     80.47000000     1.07000000    46.81000000
   H     77.79000000     2.49000000    47.03000000
   H     78.49000000     2.10000000    45.60000000
   N     80.77000000     1.65000000    49.34000000
   C     80.78000000     2.29000000    50.64000000
   C     81.90000000     3.31000000    50.77000000
   O     83.07000000     3.05000000    50.46000000
   H     81.46000000     2.05000000    48.72000000
   H     81.00000000     1.63000000    51.48000000
   H     79.84000000     2.81000000    50.85000000
   N     81.66000000     4.53000000    51.25000000
   C     82.60000000     5.61000000    51.44000000
   C     83.21000000     5.82000000    52.82000000
   O     82.58000000     5.37000000    53.77000000
   C     81.96000000     6.91000000    50.96000000
   C     81.52000000     6.63000000    49.53000000
   O     82.32000000     6.27000000    48.64000000
   O     80.35000000     6.87000000    49.17000000
   H     80.72000000     4.68000000    51.60000000
   H     83.51000000     5.44000000    50.86000000
   H     82.61000000     7.78000000    51.04000000
   H     81.08000000     7.08000000    51.58000000
   N     84.34000000     6.50000000    53.04000000
   C     84.91000000     6.78000000    54.34000000
   C     85.24000000     5.51000000    55.12000000
   O     85.50000000     4.43000000    54.60000000
   H     84.91000000     6.84000000    52.28000000
   H     84.19000000     7.41000000    54.87000000
   H     85.85000000     7.30000000    54.15000000
   N     85.34000000     5.73000000    56.43000000
   C     85.72000000     4.72000000    57.39000000
   C     87.19000000     4.87000000    57.74000000
   O     87.85000000     5.91000000    57.63000000
   C     84.93000000     4.85000000    58.69000000
   C     85.03000000     6.25000000    59.30000000
   O     83.59000000     4.46000000    58.51000000
   H     85.22000000     6.67000000    56.77000000
   H     85.50000000     3.73000000    56.99000000
   H     85.32000000     4.22000000    59.48000000
   H     83.66000000     3.92000000    57.72000000
   H     86.08000000     6.42000000    59.54000000
   H     84.69000000     7.09000000    58.69000000
   H     84.45000000     6.33000000    60.22000000
   N     87.71000000     3.75000000    58.24000000
   C     89.07000000     3.66000000    58.73000000
   C     90.11000000     3.53000000    57.63000000
   O     91.32000000     3.51000000    57.87000000
   C     89.12000000     2.60000000    59.82000000
   C     88.84000000     1.16000000    59.39000000
   C     88.06000000     2.84000000    60.89000000
   C     89.18000000     0.06000000    60.40000000
   H     87.12000000     2.93000000    58.31000000
   H     89.25000000     4.66000000    59.14000000
   H     90.07000000     2.52000000    60.36000000
   H     89.40000000     0.84000000    58.52000000
   H     87.81000000     1.03000000    59.07000000
   H     88.16000000     3.86000000    61.27000000
   H     87.02000000     2.68000000    60.61000000
   H     88.23000000     2.17000000    61.74000000
   H     89.26000000    -0.94000000    59.98000000
   H     90.07000000     0.37000000    60.94000000
   H     88.35000000     0.03000000    61.10000000
   N     89.79000000     3.40000000    56.34000000
   C     90.67000000     3.68000000    55.22000000
   C     91.71000000     2.57000000    55.14000000
   O     91.40000000     1.43000000    54.83000000
   C     89.87000000     3.79000000    53.93000000
   C     88.89000000     4.96000000    53.94000000
   O     90.74000000     3.86000000    52.81000000
   H     88.80000000     3.42000000    56.17000000
   H     91.04000000     4.67000000    55.46000000
   H     89.35000000     2.83000000    53.86000000
   H     90.22000000     3.79000000    52.01000000
   H     88.29000000     5.07000000    54.84000000
   H     89.39000000     5.92000000    53.80000000
   H     88.17000000     4.67000000    53.18000000
   N     92.97000000     2.91000000    55.43000000
   C     94.12000000     2.05000000    55.18000000
   C     94.07000000     0.91000000    56.18000000
   O     94.60000000    -0.16000000    55.90000000
   C     95.35000000     2.96000000    55.12000000
   C     96.57000000     2.14000000    54.74000000
   O     95.53000000     3.54000000    56.40000000
   H     93.12000000     3.87000000    55.71000000
   H     93.96000000     1.45000000    54.28000000
   H     95.10000000     3.78000000    54.45000000
   H     95.43000000     4.49000000    56.33000000
   H     96.39000000     1.45000000    53.91000000
   H     97.37000000     2.83000000    54.46000000
   H     96.93000000     1.64000000    55.64000000
   N     93.51000000     1.12000000    57.38000000
   C     93.57000000     0.19000000    58.49000000
   C     92.70000000    -1.05000000    58.35000000
   O     91.60000000    -0.97000000    57.81000000
   C     93.17000000     0.96000000    59.75000000
   C     93.95000000     2.20000000    60.14000000
   C     95.43000000     2.02000000    60.46000000
   C     96.30000000     2.03000000    59.20000000
   N     97.70000000     1.62000000    59.40000000
   H     93.00000000     1.98000000    57.48000000
   H     94.60000000    -0.15000000    58.62000000
   H     93.36000000     0.28000000    60.58000000
   H     92.11000000     1.22000000    59.82000000
   H     93.44000000     2.62000000    61.00000000
   H     93.95000000     2.90000000    59.30000000
   H     95.63000000     1.14000000    61.08000000
   H     95.61000000     2.91000000    61.06000000
   H     96.28000000     3.06000000    58.84000000
   H     95.86000000     1.34000000    58.49000000
   H     98.05000000     1.80000000    60.33000000
   H     97.72000000     0.61000000    59.36000000
   H     98.25000000     2.15000000    58.75000000
   N     93.13000000    -2.26000000    58.73000000
   C     92.36000000    -3.48000000    58.63000000
   C     93.09000000    -4.61000000    57.92000000
   O     94.28000000    -4.78000000    58.19000000
   C     92.10000000    -3.92000000    60.07000000
   C     91.05000000    -3.07000000    60.77000000
   C     90.82000000    -3.63000000    62.17000000
   O     89.89000000    -4.46000000    62.29000000
   O     91.56000000    -3.29000000    63.12000000
   H     94.02000000    -2.30000000    59.21000000
   H     91.42000000    -3.24000000    58.12000000
   H     93.06000000    -3.99000000    60.57000000
   H     91.77000000    -4.96000000    60.00000000
   H     90.12000000    -3.22000000    60.22000000
   H     91.35000000    -2.02000000    60.77000000
   N     92.41000000    -5.56000000    57.27000000
   C     91.06000000    -5.58000000    56.74000000
   H     90.42700000    -4.92100000    57.33400000
   H     91.07000000    -5.23800000    55.70500000
   H     90.66700000    -6.59600000    56.78300000
   H     92.98000000    -6.38000000    57.08000000
  Ca     80.69000000     6.64000000    46.62000000
   O     82.31000000     4.87000000    45.24000000
   H     83.23000000     5.14000000    45.17000000
   H     82.29000000     3.99000000    44.85000000
   O     83.19000000     7.69000000    46.39000000
   H     83.73000000     8.01000000    47.11000000
   H     83.80000000     7.57000000    45.66000000
   O     80.15000000     7.17000000    44.10000000
   H     80.49000000     6.43000000    43.59000000
   H     79.39000000     7.47000000    43.60000000
   O     80.79000000     9.32000000    47.26000000
   H     81.50000000     9.69000000    47.78000000
   H     80.16000000    10.02000000    47.18000000
   O     78.29000000     7.76000000    46.72000000
   H     77.47000000     7.67000000    46.25000000
   H     78.15000000     8.50000000    47.31000000

Ca 1.00



