%chk=loop4.holoCaM-CaMKII.run21.water1.chk
%nprocshared=20
%mem=10GB
%nosave
#b3lyp/svp scf=(tight,noincore,xqc) Test 
#IOP(5/87=12) Density=Current Pop=(MK,readradii) iop(6/33=2) iop(6/42=6)

loop4.holoCaM-CaMKII.run21.water1 

   -3  1 
   C     86.63000000    64.24000000    33.41000000
   C     86.00000000    64.66000000    34.73000000
   O     85.01000000    65.38000000    34.70000000
   H     87.64200000    63.87800000    33.59000000
   H     86.03500000    63.44500000    32.96000000
   H     86.66500000    65.09500000    32.73500000
   N     86.59000000    64.24000000    35.85000000
   C     85.75000000    64.33000000    37.03000000
   C     85.80000000    65.61000000    37.84000000
   O     86.88000000    66.08000000    38.21000000
   C     86.17000000    63.12000000    37.85000000
   C     85.28000000    62.89000000    39.06000000
   O     84.98000000    63.85000000    39.81000000
   O     84.50000000    61.91000000    39.09000000
   H     87.42000000    63.68000000    35.72000000
   H     84.69000000    64.21000000    36.77000000
   H     87.22000000    63.13000000    38.15000000
   H     86.01000000    62.31000000    37.13000000
   N     84.69000000    66.31000000    38.06000000
   C     84.63000000    67.69000000    38.52000000
   C     85.05000000    67.79000000    39.98000000
   O     85.38000000    68.89000000    40.42000000
   C     83.27000000    68.33000000    38.28000000
   C     82.78000000    68.32000000    36.83000000
   C     83.08000000    69.76000000    38.78000000
   C     83.54000000    69.15000000    35.80000000
   H     83.84000000    65.78000000    38.01000000
   H     85.36000000    68.22000000    37.91000000
   H     82.58000000    67.66000000    38.81000000
   H     81.80000000    68.78000000    36.83000000
   H     82.82000000    67.32000000    36.41000000
   H     82.09000000    70.14000000    38.51000000
   H     83.03000000    69.72000000    39.86000000
   H     83.93000000    70.34000000    38.45000000
   H     83.57000000    70.19000000    36.13000000
   H     84.58000000    68.83000000    35.77000000
   H     83.04000000    69.01000000    34.84000000
   N     84.93000000    66.74000000    40.79000000
   C     84.86000000    66.86000000    42.24000000
   C     85.71000000    65.80000000    42.91000000
   O     85.96000000    65.99000000    44.10000000
   C     83.38000000    66.70000000    42.57000000
   C     82.79000000    65.48000000    41.87000000
   O     83.17000000    64.35000000    42.26000000
   O     82.05000000    65.48000000    40.87000000
   H     84.60000000    65.89000000    40.35000000
   H     85.11000000    67.85000000    42.62000000
   H     82.81000000    67.57000000    42.24000000
   H     83.31000000    66.59000000    43.65000000
   N     86.20000000    64.76000000    42.22000000
   C     87.30000000    63.95000000    42.71000000
   C     86.98000000    62.51000000    43.08000000
   O     87.88000000    61.71000000    43.35000000
   H     85.92000000    64.73000000    41.25000000
   H     87.67000000    64.37000000    43.64000000
   H     88.01000000    63.90000000    41.88000000
   N     85.75000000    61.99000000    43.11000000
   C     85.43000000    60.64000000    43.52000000
   C     85.61000000    59.55000000    42.46000000
   O     85.66000000    58.38000000    42.81000000
   C     84.01000000    60.52000000    44.06000000
   C     82.94000000    61.01000000    43.11000000
   O     83.13000000    61.29000000    41.90000000
   O     81.77000000    61.06000000    43.55000000
   H     84.96000000    62.56000000    42.83000000
   H     86.15000000    60.39000000    44.30000000
   H     83.99000000    61.26000000    44.86000000
   H     83.78000000    59.53000000    44.47000000
   N     85.70000000    59.87000000    41.17000000
   C     85.86000000    58.94000000    40.07000000
   C     84.61000000    58.40000000    39.38000000
   O     84.67000000    57.50000000    38.55000000
   H     85.60000000    60.85000000    40.96000000
   H     86.50000000    58.10000000    40.36000000
   H     86.34000000    59.42000000    39.23000000
   N     83.48000000    58.98000000    39.79000000
   C     82.19000000    58.67000000    39.21000000
   C     81.81000000    59.84000000    38.31000000
   O     81.65000000    60.96000000    38.80000000
   C     81.16000000    58.29000000    40.27000000
   C     81.54000000    57.20000000    41.28000000
   C     81.46000000    55.82000000    40.65000000
   N     82.57000000    55.11000000    40.46000000
   O     80.41000000    55.30000000    40.26000000
   H     83.63000000    59.82000000    40.32000000
   H     82.27000000    57.71000000    38.69000000
   H     80.21000000    57.96000000    39.86000000
   H     80.94000000    59.18000000    40.86000000
   H     80.82000000    57.13000000    42.10000000
   H     82.53000000    57.48000000    41.64000000
   H     83.47000000    55.55000000    40.62000000
   H     82.49000000    54.16000000    40.15000000
   N     81.68000000    59.56000000    37.02000000
   C     81.53000000    60.62000000    36.04000000
   C     80.09000000    60.68000000    35.57000000
   O     79.63000000    59.92000000    34.72000000
   C     82.51000000    60.34000000    34.90000000
   C     82.45000000    61.49000000    33.90000000
   C     83.97000000    60.11000000    35.26000000
   H     81.86000000    58.65000000    36.60000000
   H     81.82000000    61.59000000    36.45000000
   H     82.28000000    59.36000000    34.49000000
   H     81.56000000    61.44000000    33.27000000
   H     82.46000000    62.46000000    34.38000000
   H     83.33000000    61.40000000    33.25000000
   H     84.05000000    59.35000000    36.04000000
   H     84.49000000    59.79000000    34.36000000
   H     84.25000000    61.07000000    35.71000000
   N     79.40000000    61.55000000    36.32000000
   C     78.00000000    61.78000000    36.04000000
   C     77.79000000    62.29000000    34.62000000
   O     78.66000000    62.97000000    34.07000000
   C     77.47000000    62.74000000    37.09000000
   C     75.95000000    62.77000000    37.11000000
   N     75.24000000    61.86000000    37.77000000
   O     75.33000000    63.66000000    36.53000000
   H     79.85000000    62.03000000    37.08000000
   H     77.44000000    60.86000000    36.23000000
   H     77.75000000    63.79000000    36.94000000
   H     77.80000000    62.41000000    38.08000000
   H     75.66000000    61.09000000    38.29000000
   H     74.23000000    61.92000000    37.78000000
   N     76.58000000    62.21000000    34.06000000
   C     76.30000000    62.83000000    32.78000000
   C     76.51000000    64.33000000    32.77000000
   O     76.93000000    64.85000000    31.74000000
   C     74.98000000    62.32000000    32.21000000
   C     74.68000000    62.95000000    30.87000000
   C     75.20000000    62.41000000    29.69000000
   C     73.83000000    64.06000000    30.79000000
   C     74.97000000    62.96000000    28.43000000
   C     73.56000000    64.59000000    29.52000000
   C     74.08000000    64.04000000    28.33000000
   O     73.71000000    64.54000000    27.12000000
   H     75.82000000    61.68000000    34.45000000
   H     77.05000000    62.48000000    32.08000000
   H     74.22000000    62.60000000    32.94000000
   H     74.98000000    61.24000000    32.07000000
   H     75.81000000    61.53000000    29.81000000
   H     73.56000000    64.53000000    31.73000000
   H     75.54000000    62.70000000    27.54000000
   H     72.83000000    65.38000000    29.40000000
   H     73.12000000    65.28000000    27.24000000
   N     76.33000000    65.11000000    33.84000000
   C     76.69000000    66.51000000    33.97000000
   C     78.18000000    66.80000000    33.87000000
   O     78.58000000    67.92000000    33.59000000
   C     76.14000000    67.21000000    35.21000000
   C     76.89000000    66.87000000    36.50000000
   C     76.29000000    67.51000000    37.74000000
   O     76.52000000    68.72000000    37.95000000
   O     75.48000000    66.92000000    38.49000000
   H     76.08000000    64.67000000    34.72000000
   H     76.21000000    67.01000000    33.13000000
   H     75.06000000    67.07000000    35.26000000
   H     76.42000000    68.26000000    35.09000000
   H     77.92000000    67.21000000    36.41000000
   H     76.85000000    65.80000000    36.72000000
   N     79.03000000    65.81000000    34.13000000
   C     80.46000000    66.04000000    34.19000000
   C     81.01000000    65.79000000    32.80000000
   O     81.77000000    66.57000000    32.22000000
   C     81.07000000    65.16000000    35.27000000
   C     80.48000000    65.30000000    36.67000000
   C     81.14000000    64.39000000    37.70000000
   O     82.38000000    64.34000000    37.78000000
   O     80.41000000    63.69000000    38.44000000
   H     78.65000000    64.88000000    34.26000000
   H     80.62000000    67.09000000    34.42000000
   H     82.16000000    65.24000000    35.30000000
   H     80.97000000    64.11000000    34.99000000
   H     79.40000000    65.20000000    36.57000000
   H     80.72000000    66.31000000    37.01000000
   N     80.56000000    64.67000000    32.23000000
   C     80.89000000    64.25000000    30.88000000
   H     81.92500000    63.90800000    30.84900000
   H     80.23000000    63.43600000    30.58100000
   H     80.76500000    65.09000000    30.19700000
   H     79.93000000    64.14000000    32.81000000
  Ca     82.39000000    63.02000000    40.07000000
   O     80.21000000    62.49000000    41.75000000
   H     79.28000000    62.36000000    41.94000000
   H     80.67000000    62.00000000    42.43000000

Ca 1.00



