%chk=loop1.holoCaM.run1.water2.chk
%nprocshared=20
%mem=10GB
%nosave
#b3lyp/svp scf=(tight,noincore,xqc) Test 
#IOP(5/87=12) Density=Current Pop=(MK,readradii) iop(6/33=2) iop(6/42=6)

loop1.holoCaM.run1.water2 

   0  1 
   C     70.16000000    42.10000000    20.01000000
   C     70.60000000    40.87000000    19.23000000
   O     70.39000000    39.78000000    19.76000000
   H     69.15700000    41.93900000    20.40600000
   H     70.85200000    42.27500000    20.83400000
   H     70.15400000    42.96700000    19.34900000
   N     71.27000000    41.13000000    18.11000000
   C     72.02000000    40.11000000    17.39000000
   C     73.46000000    40.16000000    17.87000000
   O     74.33000000    40.96000000    17.53000000
   C     71.95000000    40.48000000    15.91000000
   C     72.84000000    39.57000000    15.08000000
   O     73.15000000    38.43000000    15.48000000
   O     73.09000000    39.79000000    13.87000000
   H     71.27000000    42.02000000    17.63000000
   H     71.51000000    39.15000000    17.53000000
   H     72.25000000    41.52000000    15.81000000
   H     70.92000000    40.35000000    15.57000000
   N     73.74000000    39.20000000    18.75000000
   C     74.85000000    39.22000000    19.68000000
   C     76.12000000    38.52000000    19.23000000
   O     77.13000000    38.61000000    19.92000000
   C     74.36000000    38.80000000    21.07000000
   C     73.49000000    39.87000000    21.73000000
   C     74.14000000    41.11000000    22.33000000
   C     75.11000000    40.72000000    23.45000000
   N     76.05000000    41.75000000    23.91000000
   H     72.93000000    38.64000000    18.97000000
   H     75.23000000    40.24000000    19.76000000
   H     75.16000000    38.54000000    21.75000000
   H     73.78000000    37.88000000    21.02000000
   H     73.00000000    39.29000000    22.52000000
   H     72.66000000    40.19000000    21.10000000
   H     73.41000000    41.79000000    22.76000000
   H     74.69000000    41.62000000    21.54000000
   H     75.62000000    39.82000000    23.11000000
   H     74.58000000    40.32000000    24.32000000
   H     75.49000000    42.43000000    24.41000000
   H     76.78000000    41.39000000    24.50000000
   H     76.32000000    42.33000000    23.14000000
   N     76.09000000    37.90000000    18.05000000
   C     77.21000000    37.45000000    17.24000000
   C     77.33000000    38.06000000    15.85000000
   O     78.40000000    37.97000000    15.27000000
   C     77.20000000    35.93000000    17.26000000
   C     75.92000000    35.27000000    16.77000000
   O     74.96000000    35.98000000    16.44000000
   O     75.97000000    34.02000000    16.70000000
   H     75.18000000    37.62000000    17.70000000
   H     78.18000000    37.59000000    17.73000000
   H     77.38000000    35.58000000    18.28000000
   H     78.03000000    35.65000000    16.60000000
   N     76.25000000    38.68000000    15.36000000
   C     76.26000000    39.43000000    14.12000000
   C     76.23000000    38.39000000    13.01000000
   O     77.26000000    37.93000000    12.54000000
   H     75.36000000    38.62000000    15.83000000
   H     77.23000000    39.93000000    14.14000000
   H     75.41000000    40.11000000    14.11000000
   N     74.99000000    38.08000000    12.61000000
   C     74.63000000    37.30000000    11.44000000
   C     73.47000000    37.96000000    10.71000000
   O     73.02000000    37.46000000     9.68000000
   C     74.35000000    35.83000000    11.72000000
   C     73.48000000    35.62000000    12.95000000
   O     72.44000000    36.29000000    13.12000000
   O     73.71000000    34.75000000    13.82000000
   H     74.21000000    38.61000000    12.97000000
   H     75.50000000    37.32000000    10.78000000
   H     75.31000000    35.32000000    11.79000000
   H     73.82000000    35.32000000    10.92000000
   N     72.86000000    38.98000000    11.32000000
   C     71.68000000    39.62000000    10.77000000
   C     70.41000000    38.97000000    11.29000000
   O     69.31000000    39.37000000    10.91000000
   H     73.23000000    39.31000000    12.20000000
   H     71.64000000    39.51000000     9.68000000
   H     71.85000000    40.68000000    10.92000000
   N     70.48000000    37.91000000    12.10000000
   C     69.27000000    37.38000000    12.70000000
   C     69.24000000    37.30000000    14.22000000
   O     70.29000000    37.21000000    14.86000000
   C     68.97000000    36.01000000    12.09000000
   C     68.54000000    36.04000000    10.63000000
   O     70.04000000    35.13000000    12.33000000
   H     71.35000000    37.68000000    12.55000000
   H     68.41000000    37.98000000    12.40000000
   H     68.09000000    35.62000000    12.60000000
   H     70.88000000    35.57000000    12.49000000
   H     67.60000000    36.58000000    10.55000000
   H     69.29000000    36.57000000    10.05000000
   H     68.45000000    35.00000000    10.33000000
   N     68.08000000    37.30000000    14.89000000
   C     67.94000000    37.03000000    16.30000000
   C     67.51000000    35.59000000    16.53000000
   O     66.49000000    35.20000000    15.96000000
   C     67.27000000    38.15000000    17.09000000
   C     68.00000000    39.47000000    16.90000000
   C     66.99000000    37.70000000    18.52000000
   C     67.14000000    40.63000000    17.39000000
   H     67.21000000    37.33000000    14.38000000
   H     68.95000000    37.07000000    16.71000000
   H     66.26000000    38.36000000    16.73000000
   H     68.41000000    39.62000000    15.90000000
   H     68.78000000    39.57000000    17.67000000
   H     67.86000000    37.73000000    19.18000000
   H     66.26000000    38.39000000    18.95000000
   H     66.51000000    36.73000000    18.43000000
   H     66.23000000    40.64000000    16.79000000
   H     66.98000000    40.53000000    18.46000000
   H     67.63000000    41.60000000    17.28000000
   N     67.99000000    34.87000000    17.55000000
   C     67.49000000    33.56000000    17.93000000
   C     67.09000000    33.55000000    19.40000000
   O     67.03000000    34.64000000    19.96000000
   C     68.56000000    32.51000000    17.62000000
   C     69.90000000    32.73000000    18.32000000
   O     68.10000000    31.22000000    17.94000000
   H     68.84000000    35.25000000    17.93000000
   H     66.63000000    33.35000000    17.31000000
   H     68.68000000    32.60000000    16.54000000
   H     67.34000000    31.04000000    17.38000000
   H     70.25000000    33.64000000    17.84000000
   H     69.77000000    32.77000000    19.40000000
   H     70.63000000    31.97000000    18.03000000
   N     66.74000000    32.44000000    20.06000000
   C     66.07000000    32.38000000    21.34000000
   C     66.89000000    32.88000000    22.52000000
   O     66.50000000    33.80000000    23.24000000
   C     65.56000000    30.97000000    21.64000000
   C     64.29000000    30.56000000    20.90000000
   O     66.56000000    30.01000000    21.39000000
   H     66.97000000    31.55000000    19.64000000
   H     65.19000000    33.03000000    21.34000000
   H     65.32000000    30.95000000    22.70000000
   H     66.35000000    29.09000000    21.56000000
   H     63.59000000    31.39000000    20.97000000
   H     64.46000000    30.35000000    19.84000000
   H     63.84000000    29.71000000    21.41000000
   N     68.12000000    32.40000000    22.73000000
   C     69.11000000    33.00000000    23.60000000
   C     69.49000000    34.45000000    23.33000000
   O     70.10000000    35.04000000    24.22000000
   C     70.41000000    32.20000000    23.58000000
   C     70.23000000    30.73000000    23.96000000
   C     71.54000000    30.02000000    23.64000000
   C     71.47000000    28.61000000    24.21000000
   N     72.47000000    27.79000000    23.51000000
   H     68.46000000    31.73000000    22.05000000
   H     68.85000000    33.00000000    24.66000000
   H     71.10000000    32.72000000    24.24000000
   H     70.62000000    32.30000000    22.51000000
   H     69.33000000    30.30000000    23.51000000
   H     70.09000000    30.79000000    25.04000000
   H     72.45000000    30.48000000    24.03000000
   H     71.59000000    29.89000000    22.56000000
   H     70.49000000    28.22000000    23.95000000
   H     71.54000000    28.54000000    25.30000000
   H     72.27000000    27.69000000    22.52000000
   H     73.39000000    28.17000000    23.67000000
   H     72.44000000    26.91000000    24.01000000
   N     69.11000000    34.98000000    22.17000000
   C     69.45000000    36.37000000    21.92000000
   C     68.23000000    37.24000000    22.16000000
   O     68.32000000    38.24000000    22.87000000
   C     69.91000000    36.49000000    20.47000000
   C     71.21000000    35.79000000    20.09000000
   C     71.56000000    36.06000000    18.63000000
   O     70.70000000    35.87000000    17.74000000
   O     72.68000000    36.53000000    18.36000000
   H     68.57000000    34.43000000    21.51000000
   H     70.21000000    36.71000000    22.62000000
   H     69.94000000    37.49000000    20.04000000
   H     69.15000000    35.92000000    19.92000000
   H     70.98000000    34.76000000    20.37000000
   H     71.98000000    36.05000000    20.83000000
   N     67.04000000    36.77000000    21.77000000
   C     65.78000000    37.34000000    22.22000000
   H     65.00300000    36.57700000    22.18200000
   H     65.88700000    37.69700000    23.24400000
   H     65.50400000    38.17200000    21.57100000
   H     67.01000000    36.01000000    21.10000000
  Ca     72.49000000    36.02000000    15.88000000
   O     70.53000000    34.30000000    15.03000000
   H     70.17000000    34.31000000    14.15000000
   H     70.76000000    33.38000000    15.19000000
   O     73.47000000    33.35000000    16.71000000
   H     73.34000000    32.41000000    16.55000000
   H     74.42000000    33.47000000    16.68000000

Ca 1.00



