%chk=loop3.apoCaM-CA-Ng.Init295.run87.water4.chk
%nprocshared=20
%mem=10GB
%nosave
#b3lyp/svp scf=(tight,noincore,xqc) Test 
#IOP(5/87=12) Density=Current Pop=(MK,readradii) iop(6/33=2) iop(6/42=6)

loop3.apoCaM-CA-Ng.Init295.run87.water4 

   0  1 
   C    100.17000000   -21.02000000    60.48000000
   C     99.89000000   -22.28000000    59.68000000
   O     98.76000000   -22.38000000    59.19000000
   H    101.02500000   -20.49900000    60.04900000
   H     99.29600000   -20.36900000    60.45100000
   H    100.39100000   -21.28700000    61.51300000
   N    100.84000000   -23.18000000    59.42000000
   C    100.65000000   -24.41000000    58.68000000
   C     99.92000000   -25.43000000    59.55000000
   O    100.55000000   -25.78000000    60.54000000
   C    101.94000000   -24.94000000    58.06000000
   C    101.64000000   -26.00000000    57.02000000
   O    100.78000000   -26.89000000    57.20000000
   O    102.16000000   -26.00000000    55.88000000
   H    101.78000000   -22.99000000    59.75000000
   H     99.95000000   -24.18000000    57.88000000
   H    102.63000000   -25.28000000    58.84000000
   H    102.49000000   -24.16000000    57.55000000
   N     98.67000000   -25.80000000    59.27000000
   C     97.82000000   -26.61000000    60.12000000
   C     98.31000000   -28.03000000    60.35000000
   O     97.77000000   -28.75000000    61.19000000
   C     96.42000000   -26.66000000    59.53000000
   C     95.50000000   -25.44000000    59.64000000
   C     95.41000000   -24.93000000    61.07000000
   C     94.39000000   -25.66000000    61.94000000
   N     94.29000000   -24.95000000    63.22000000
   H     98.27000000   -25.52000000    58.38000000
   H     97.82000000   -26.23000000    61.14000000
   H     95.89000000   -27.38000000    60.14000000
   H     96.53000000   -27.11000000    58.54000000
   H     94.56000000   -25.69000000    59.16000000
   H     95.86000000   -24.56000000    59.11000000
   H     95.07000000   -23.89000000    61.02000000
   H     96.38000000   -24.83000000    61.56000000
   H     94.70000000   -26.69000000    62.06000000
   H     93.45000000   -25.72000000    61.38000000
   H     95.17000000   -24.56000000    63.52000000
   H     93.68000000   -24.15000000    63.23000000
   H     93.99000000   -25.59000000    63.95000000
   N     99.30000000   -28.46000000    59.57000000
   C     99.90000000   -29.77000000    59.55000000
   C    101.42000000   -29.86000000    59.64000000
   O    101.96000000   -30.88000000    60.05000000
   C     99.41000000   -30.57000000    58.34000000
   C     99.79000000   -29.90000000    57.03000000
   O    101.00000000   -29.89000000    56.70000000
   O     98.93000000   -29.50000000    56.22000000
   H     99.69000000   -27.79000000    58.91000000
   H     99.55000000   -30.25000000    60.47000000
   H     98.33000000   -30.63000000    58.41000000
   H     99.88000000   -31.55000000    58.46000000
   N    102.15000000   -28.75000000    59.48000000
   C    103.58000000   -28.71000000    59.70000000
   C    104.50000000   -29.25000000    58.61000000
   O    105.72000000   -29.31000000    58.80000000
   H    101.70000000   -27.95000000    59.05000000
   H    103.94000000   -29.30000000    60.54000000
   H    103.89000000   -27.68000000    59.88000000
   N    103.96000000   -29.77000000    57.51000000
   C    104.62000000   -30.16000000    56.28000000
   C    104.13000000   -29.44000000    55.03000000
   O    103.04000000   -28.87000000    54.97000000
   C    104.70000000   -31.69000000    56.23000000
   C    104.96000000   -32.32000000    54.88000000
   N    104.04000000   -33.14000000    54.36000000
   O    105.93000000   -32.13000000    54.15000000
   H    102.95000000   -29.79000000    57.45000000
   H    105.61000000   -29.73000000    56.39000000
   H    103.70000000   -31.95000000    56.57000000
   H    105.32000000   -32.12000000    57.02000000
   H    103.18000000   -33.24000000    54.87000000
   H    104.23000000   -33.64000000    53.50000000
   N    104.93000000   -29.46000000    53.96000000
   C    104.73000000   -28.58000000    52.82000000
   C    105.58000000   -28.96000000    51.62000000
   O    105.53000000   -28.34000000    50.56000000
   H    105.77000000   -30.00000000    54.09000000
   H    104.90000000   -27.53000000    53.05000000
   H    103.70000000   -28.61000000    52.46000000
   N    106.20000000   -30.15000000    51.65000000
   C    106.99000000   -30.82000000    50.64000000
   C    106.16000000   -31.35000000    49.48000000
   O    105.04000000   -31.84000000    49.64000000
   C    107.76000000   -32.00000000    51.23000000
   C    108.91000000   -32.54000000    50.43000000
   C    108.74000000   -33.47000000    49.39000000
   C    110.18000000   -31.96000000    50.56000000
   C    109.79000000   -33.85000000    48.55000000
   C    111.27000000   -32.38000000    49.78000000
   C    111.10000000   -33.41000000    48.84000000
   O    112.08000000   -33.91000000    48.04000000
   H    105.97000000   -30.77000000    52.41000000
   H    107.73000000   -30.22000000    50.11000000
   H    107.15000000   -32.87000000    51.47000000
   H    108.17000000   -31.73000000    52.21000000
   H    107.79000000   -33.90000000    49.13000000
   H    110.33000000   -31.32000000    51.41000000
   H    109.69000000   -34.63000000    47.81000000
   H    112.29000000   -32.07000000    49.99000000
   H    112.86000000   -33.36000000    48.13000000
   N    106.69000000   -31.04000000    48.29000000
   C    106.07000000   -31.18000000    46.99000000
   C    105.46000000   -32.49000000    46.51000000
   O    105.07000000   -33.32000000    47.33000000
   C    105.15000000   -29.99000000    46.76000000
   C    105.87000000   -28.66000000    46.93000000
   C    103.75000000   -29.96000000    47.38000000
   C    105.27000000   -27.37000000    46.37000000
   H    107.63000000   -30.67000000    48.28000000
   H    106.89000000   -31.01000000    46.29000000
   H    105.08000000   -29.87000000    45.67000000
   H    106.79000000   -28.77000000    46.34000000
   H    106.01000000   -28.51000000    48.00000000
   H    103.23000000   -29.18000000    46.84000000
   H    103.23000000   -30.89000000    47.16000000
   H    103.68000000   -29.86000000    48.46000000
   H    106.00000000   -26.59000000    46.60000000
   H    105.13000000   -27.50000000    45.30000000
   H    104.31000000   -27.11000000    46.81000000
   N    105.37000000   -32.61000000    45.18000000
   C    104.62000000   -33.63000000    44.47000000
   C    105.20000000   -33.88000000    43.09000000
   O    104.72000000   -34.87000000    42.53000000
   C    103.16000000   -33.19000000    44.36000000
   O    103.04000000   -32.15000000    43.42000000
   H    105.85000000   -31.89000000    44.66000000
   H    104.83000000   -34.55000000    45.01000000
   H    102.88000000   -32.85000000    45.36000000
   H    102.63000000   -34.07000000    43.99000000
   H    102.42000000   -31.46000000    43.67000000
   N    106.24000000   -33.23000000    42.57000000
   C    107.11000000   -33.72000000    41.52000000
   C    106.51000000   -33.94000000    40.14000000
   O    106.67000000   -34.99000000    39.51000000
   C    107.99000000   -34.89000000    41.94000000
   H    106.58000000   -32.41000000    43.05000000
   H    107.91000000   -33.00000000    41.35000000
   H    107.46000000   -35.84000000    41.89000000
   H    108.80000000   -35.00000000    41.22000000
   H    108.49000000   -34.66000000    42.89000000
   N    105.87000000   -32.92000000    39.57000000
   C    105.38000000   -31.64000000    40.02000000
   C    105.67000000   -30.56000000    38.99000000
   O    105.80000000   -30.74000000    37.78000000
   C    103.91000000   -31.96000000    40.28000000
   H    105.67000000   -33.09000000    38.59000000
   H    105.89000000   -31.31000000    40.93000000
   H    103.38000000   -32.14000000    39.34000000
   H    103.88000000   -32.87000000    40.88000000
   H    103.53000000   -31.13000000    40.88000000
   N    105.74000000   -29.30000000    39.42000000
   C    105.36000000   -28.74000000    40.70000000
   C    106.42000000   -27.72000000    41.10000000
   O    106.70000000   -27.63000000    42.29000000
   C    104.01000000   -28.05000000    40.52000000
   C    103.44000000   -27.40000000    41.77000000
   C    102.14000000   -26.62000000    41.58000000
   O    101.11000000   -27.32000000    41.59000000
   O    102.19000000   -25.42000000    41.25000000
   H    105.87000000   -28.60000000    38.71000000
   H    105.33000000   -29.52000000    41.47000000
   H    103.37000000   -28.87000000    40.19000000
   H    104.00000000   -27.29000000    39.74000000
   H    104.27000000   -26.83000000    42.19000000
   H    103.31000000   -28.28000000    42.40000000
   N    107.03000000   -26.95000000    40.19000000
   C    108.09000000   -26.00000000    40.43000000
   H    108.95100000   -26.25400000    39.81200000
   H    107.74500000   -24.99800000    40.17700000
   H    108.37600000   -26.03100000    41.48100000
   H    106.69000000   -27.09000000    39.25000000
  Ca    100.61700000   -27.94700000    54.88000000
   O     98.93000000   -25.75700000    55.00000000
   H     98.50000000   -25.51700000    54.18000000
   H     98.40000000   -25.33700000    55.68000000
   O    100.76700000   -29.94700000    53.13000000
   H    100.59700000   -29.79700000    52.20000000
   H    100.61700000   -30.87700000    53.26000000
   O    101.14700000   -26.67700000    52.58000000
   H    100.90700000   -25.74700000    52.54000000
   H    101.53700000   -26.85700000    51.72000000
   O     98.44000000   -28.02700000    53.41000000
   H     98.39000000   -28.13700000    52.46000000
   H     97.59000000   -27.66700000    53.66000000

Ca 1.00



