%chk=loop3.holoCaM.run82.water3.chk
%nprocshared=20
%mem=10GB
%nosave
#b3lyp/svp scf=(tight,noincore,xqc) Test 
#IOP(5/87=12) Density=Current Pop=(MK,readradii) iop(6/33=2) iop(6/42=6)

loop3.holoCaM.run82.water3 

   0  1 
   C     55.78000000    55.10000000    27.73000000
   C     56.91000000    55.58000000    28.63000000
   O     57.79000000    54.80000000    28.96000000
   H     54.94600000    55.79900000    27.79200000
   H     56.13300000    55.04600000    26.70000000
   H     55.45100000    54.11300000    28.05400000
   N     56.90000000    56.85000000    29.05000000
   C     57.69000000    57.51000000    30.06000000
   C     57.08000000    57.01000000    31.37000000
   O     55.93000000    57.32000000    31.67000000
   C     57.56000000    59.02000000    29.86000000
   C     58.42000000    59.91000000    30.75000000
   O     59.25000000    59.38000000    31.52000000
   O     58.30000000    61.15000000    30.79000000
   H     56.22000000    57.42000000    28.56000000
   H     58.72000000    57.18000000    30.02000000
   H     56.55000000    59.34000000    30.13000000
   H     57.77000000    59.28000000    28.82000000
   N     57.81000000    56.18000000    32.12000000
   C     57.24000000    55.48000000    33.25000000
   C     56.99000000    56.50000000    34.35000000
   O     56.17000000    56.17000000    35.21000000
   C     58.14000000    54.28000000    33.55000000
   C     57.42000000    53.19000000    34.33000000
   C     58.18000000    51.91000000    34.65000000
   C     58.97000000    51.39000000    33.45000000
   N     59.75000000    50.18000000    33.73000000
   H     58.72000000    55.95000000    31.73000000
   H     56.30000000    55.04000000    32.91000000
   H     58.97000000    54.66000000    34.15000000
   H     58.56000000    53.84000000    32.65000000
   H     56.53000000    52.88000000    33.79000000
   H     57.04000000    53.60000000    35.27000000
   H     57.45000000    51.14000000    34.91000000
   H     58.81000000    52.13000000    35.52000000
   H     59.64000000    52.17000000    33.08000000
   H     58.23000000    51.29000000    32.66000000
   H     59.19000000    49.42000000    34.08000000
   H     60.12000000    49.78000000    32.87000000
   H     60.54000000    50.31000000    34.35000000
   N     57.66000000    57.64000000    34.48000000
   C     57.74000000    58.49000000    35.65000000
   C     57.44000000    59.96000000    35.39000000
   O     57.37000000    60.76000000    36.32000000
   C     59.13000000    58.35000000    36.27000000
   C     60.31000000    58.85000000    35.46000000
   O     61.31000000    59.36000000    36.02000000
   O     60.21000000    58.72000000    34.22000000
   H     58.37000000    57.77000000    33.77000000
   H     57.05000000    58.19000000    36.44000000
   H     59.31000000    57.32000000    36.58000000
   H     59.00000000    58.94000000    37.18000000
   N     57.11000000    60.29000000    34.14000000
   C     56.69000000    61.62000000    33.75000000
   C     57.74000000    62.72000000    33.65000000
   O     57.40000000    63.90000000    33.69000000
   H     57.10000000    59.46000000    33.57000000
   H     55.93000000    61.97000000    34.44000000
   H     56.24000000    61.46000000    32.77000000
   N     59.02000000    62.33000000    33.61000000
   C     60.12000000    63.27000000    33.55000000
   C     60.29000000    64.07000000    32.27000000
   O     60.87000000    65.15000000    32.33000000
   C     61.42000000    62.58000000    33.93000000
   C     62.28000000    62.09000000    32.77000000
   N     63.42000000    62.73000000    32.51000000
   O     62.02000000    61.20000000    31.96000000
   H     59.12000000    61.38000000    33.27000000
   H     59.94000000    64.04000000    34.30000000
   H     61.19000000    61.69000000    34.51000000
   H     61.93000000    63.32000000    34.55000000
   H     63.62000000    63.57000000    33.04000000
   H     64.05000000    62.40000000    31.79000000
   N     59.78000000    63.63000000    31.12000000
   C     59.96000000    64.28000000    29.84000000
   C     60.48000000    63.42000000    28.70000000
   O     60.58000000    63.86000000    27.55000000
   H     59.36000000    62.71000000    31.19000000
   H     60.65000000    65.12000000    29.90000000
   H     58.96000000    64.62000000    29.57000000
   N     61.11000000    62.30000000    29.09000000
   C     61.92000000    61.53000000    28.17000000
   C     61.70000000    60.03000000    28.26000000
   O     61.34000000    59.52000000    29.32000000
   C     63.37000000    61.96000000    28.28000000
   C     63.72000000    63.42000000    28.05000000
   C     64.00000000    63.88000000    26.76000000
   C     63.75000000    64.27000000    29.16000000
   C     64.43000000    65.21000000    26.65000000
   C     64.14000000    65.61000000    29.07000000
   C     64.51000000    66.05000000    27.78000000
   O     65.00000000    67.30000000    27.58000000
   H     61.27000000    62.16000000    30.07000000
   H     61.61000000    61.81000000    27.16000000
   H     63.98000000    61.35000000    27.61000000
   H     63.72000000    61.70000000    29.28000000
   H     63.74000000    63.32000000    25.87000000
   H     63.39000000    63.91000000    30.11000000
   H     64.73000000    65.68000000    25.73000000
   H     64.33000000    66.30000000    29.88000000
   H     65.07000000    67.85000000    28.37000000
   N     61.84000000    59.32000000    27.14000000
   C     61.74000000    57.87000000    27.09000000
   C     63.03000000    57.25000000    26.57000000
   O     63.56000000    57.70000000    25.56000000
   C     60.57000000    57.42000000    26.22000000
   C     59.22000000    57.96000000    26.70000000
   C     60.60000000    55.94000000    25.86000000
   C     58.27000000    58.19000000    25.54000000
   H     61.96000000    59.76000000    26.24000000
   H     61.45000000    57.39000000    28.03000000
   H     60.68000000    57.95000000    25.27000000
   H     59.41000000    58.91000000    27.20000000
   H     58.79000000    57.26000000    27.42000000
   H     61.48000000    55.70000000    25.27000000
   H     60.63000000    55.48000000    26.85000000
   H     59.69000000    55.69000000    25.32000000
   H     57.31000000    58.37000000    26.02000000
   H     58.69000000    58.97000000    24.91000000
   H     58.27000000    57.27000000    24.95000000
   N     63.54000000    56.26000000    27.31000000
   C     64.64000000    55.44000000    26.85000000
   C     64.29000000    54.10000000    26.22000000
   O     63.13000000    53.70000000    26.17000000
   C     65.64000000    55.20000000    27.97000000
   O     65.08000000    54.25000000    28.85000000
   H     63.08000000    55.95000000    28.15000000
   H     65.19000000    55.98000000    26.08000000
   H     65.83000000    56.13000000    28.49000000
   H     66.60000000    54.85000000    27.57000000
   H     65.76000000    53.89000000    29.43000000
   N     65.30000000    53.41000000    25.69000000
   C     65.18000000    52.07000000    25.16000000
   C     64.62000000    51.08000000    26.17000000
   O     63.75000000    50.30000000    25.79000000
   C     66.48000000    51.48000000    24.62000000
   H     66.21000000    53.83000000    25.74000000
   H     64.48000000    52.10000000    24.32000000
   H     66.32000000    50.45000000    24.31000000
   H     66.79000000    52.19000000    23.85000000
   H     67.27000000    51.56000000    25.37000000
   N     64.97000000    51.13000000    27.46000000
   C     64.37000000    50.18000000    28.38000000
   C     62.92000000    50.58000000    28.62000000
   O     62.17000000    49.62000000    28.76000000
   C     65.17000000    50.12000000    29.68000000
   H     65.73000000    51.73000000    27.72000000
   H     64.44000000    49.22000000    27.88000000
   H     66.25000000    50.01000000    29.57000000
   H     65.17000000    51.10000000    30.16000000
   H     64.71000000    49.42000000    30.38000000
   N     62.56000000    51.86000000    28.73000000
   C     61.20000000    52.25000000    29.03000000
   C     60.24000000    51.96000000    27.89000000
   O     59.09000000    51.59000000    28.15000000
   C     61.22000000    53.74000000    29.34000000
   C     61.67000000    54.11000000    30.75000000
   C     61.50000000    55.62000000    30.84000000
   O     60.49000000    56.09000000    31.40000000
   O     62.37000000    56.41000000    30.41000000
   H     63.26000000    52.53000000    28.44000000
   H     60.78000000    51.79000000    29.93000000
   H     60.19000000    54.06000000    29.18000000
   H     61.61000000    54.38000000    28.55000000
   H     62.66000000    53.68000000    30.86000000
   H     61.08000000    53.57000000    31.50000000
   N     60.79000000    52.08000000    26.68000000
   C     60.18000000    51.62000000    25.45000000
   H     59.28100000    52.20300000    25.25100000
   H     60.88300000    51.74500000    24.62600000
   H     59.91500000    50.56700000    25.54700000
   H     61.67000000    52.59000000    26.70000000
  Ca     61.59000000    58.44000000    31.96000000
   O     63.10000000    59.52000000    34.02000000
   H     63.61000000    60.28000000    34.31000000
   H     62.38000000    59.47000000    34.65000000
   O     64.08000000    58.78000000    31.04000000
   H     64.04000000    58.73000000    30.09000000
   H     64.76000000    59.42000000    31.23000000
   O     62.64000000    56.77000000    33.82000000
   H     63.37000000    57.23000000    34.23000000
   H     62.36000000    56.13000000    34.48000000

Ca 1.00



