%chk=loop1.apoCaM-CA-Ng.Init295.run72.water4.chk
%nprocshared=20
%mem=10GB
%nosave
#b3lyp/svp scf=(tight,noincore,xqc) Test 
#IOP(5/87=12) Density=Current Pop=(MK,readradii) iop(6/33=2) iop(6/42=6)

loop1.apoCaM-CA-Ng.Init295.run72.water4 

   0  1 
   C      9.20000000     2.41000000    57.59000000
   C      9.69000000     3.85000000    57.74000000
   O      9.11000000     4.62000000    58.51000000
   H      8.24800000     2.40400000    57.05900000
   H      9.93300000     1.83300000    57.02700000
   H      9.06800000     1.96600000    58.57700000
   N     10.76000000     4.25000000    57.06000000
   C     11.61000000     5.42000000    57.21000000
   C     11.52000000     6.28000000    55.96000000
   O     11.44000000     5.77000000    54.85000000
   C     13.07000000     5.04000000    57.42000000
   C     13.34000000     4.29000000    58.72000000
   O     12.57000000     4.22000000    59.71000000
   O     14.49000000     3.81000000    58.77000000
   H     11.12000000     3.60000000    56.37000000
   H     11.26000000     6.06000000    58.01000000
   H     13.62000000     5.97000000    57.32000000
   H     13.44000000     4.53000000    56.53000000
   N     11.56000000     7.61000000    56.11000000
   C     11.60000000     8.55000000    55.01000000
   C     13.03000000     8.80000000    54.55000000
   O     13.26000000     8.53000000    53.37000000
   C     10.85000000     9.79000000    55.50000000
   C     10.55000000    10.99000000    54.62000000
   C      9.96000000    12.18000000    55.38000000
   C      9.74000000    13.49000000    54.63000000
   N     11.05000000    13.95000000    54.13000000
   H     11.74000000     7.89000000    57.07000000
   H     11.06000000     8.27000000    54.11000000
   H     11.40000000    10.25000000    56.32000000
   H      9.90000000     9.53000000    55.96000000
   H      9.89000000    10.71000000    53.79000000
   H     11.45000000    11.38000000    54.15000000
   H     10.60000000    12.46000000    56.21000000
   H      9.01000000    11.85000000    55.80000000
   H      9.42000000    14.23000000    55.37000000
   H      9.03000000    13.19000000    53.86000000
   H     11.53000000    13.20000000    53.65000000
   H     10.89000000    14.47000000    53.28000000
   H     11.74000000    14.24000000    54.79000000
   N     13.96000000     9.13000000    55.44000000
   C     15.39000000     8.87000000    55.40000000
   C     15.86000000     7.82000000    56.39000000
   O     15.39000000     7.70000000    57.52000000
   C     16.12000000    10.19000000    55.65000000
   C     17.62000000     9.99000000    55.84000000
   O     18.17000000     9.27000000    54.97000000
   O     18.20000000    10.72000000    56.67000000
   H     13.63000000     9.33000000    56.37000000
   H     15.66000000     8.48000000    54.42000000
   H     15.58000000    10.68000000    56.45000000
   H     15.95000000    10.78000000    54.74000000
   N     16.81000000     6.94000000    56.04000000
   C     17.68000000     6.28000000    56.99000000
   C     19.11000000     5.99000000    56.56000000
   O     19.33000000     5.76000000    55.37000000
   H     17.10000000     6.94000000    55.07000000
   H     17.23000000     5.39000000    57.44000000
   H     17.85000000     7.04000000    57.75000000
   N     20.04000000     5.83000000    57.50000000
   C     21.45000000     5.82000000    57.17000000
   C     22.19000000     4.78000000    58.00000000
   O     21.63000000     4.35000000    59.01000000
   C     22.10000000     7.15000000    57.51000000
   C     21.38000000     8.27000000    56.77000000
   O     21.35000000     8.26000000    55.52000000
   O     20.92000000     9.29000000    57.35000000
   H     19.84000000     5.98000000    58.48000000
   H     21.58000000     5.66000000    56.10000000
   H     23.12000000     7.06000000    57.13000000
   H     22.09000000     7.34000000    58.58000000
   N     23.50000000     4.58000000    57.79000000
   C     24.41000000     3.88000000    58.66000000
   C     24.20000000     2.37000000    58.70000000
   O     23.68000000     1.81000000    57.74000000
   H     23.94000000     5.13000000    57.06000000
   H     24.36000000     4.18000000    59.70000000
   H     25.40000000     4.01000000    58.22000000
   N     24.59000000     1.79000000    59.85000000
   C     24.44000000     0.39000000    60.18000000
   C     25.33000000    -0.46000000    59.29000000
   O     26.50000000    -0.16000000    59.09000000
   C     24.76000000     0.27000000    61.67000000
   C     23.80000000     0.91000000    62.67000000
   O     24.59000000    -1.08000000    62.04000000
   H     24.99000000     2.45000000    60.50000000
   H     23.40000000     0.10000000    59.99000000
   H     25.78000000     0.62000000    61.81000000
   H     24.11000000    -0.93000000    62.86000000
   H     24.22000000     0.82000000    63.67000000
   H     23.74000000     1.99000000    62.51000000
   H     22.78000000     0.54000000    62.54000000
   N     24.82000000    -1.60000000    58.80000000
   C     25.67000000    -2.66000000    58.29000000
   C     25.98000000    -2.48000000    56.82000000
   O     26.71000000    -3.30000000    56.26000000
   C     25.09000000    -4.04000000    58.63000000
   C     23.82000000    -4.40000000    57.87000000
   C     24.87000000    -4.22000000    60.13000000
   C     23.24000000    -5.75000000    58.29000000
   H     23.85000000    -1.81000000    58.96000000
   H     26.64000000    -2.62000000    58.78000000
   H     25.88000000    -4.74000000    58.37000000
   H     24.11000000    -4.43000000    56.82000000
   H     23.07000000    -3.62000000    58.05000000
   H     25.47000000    -3.54000000    60.72000000
   H     23.82000000    -3.94000000    60.27000000
   H     25.02000000    -5.26000000    60.41000000
   H     22.36000000    -6.02000000    57.71000000
   H     24.02000000    -6.50000000    58.20000000
   H     22.84000000    -5.65000000    59.30000000
   N     25.45000000    -1.44000000    56.17000000
   C     25.82000000    -1.04000000    54.82000000
   C     25.33000000    -2.00000000    53.75000000
   O     24.20000000    -2.49000000    53.76000000
   C     25.37000000     0.37000000    54.44000000
   C     26.01000000     1.50000000    55.24000000
   O     25.74000000     0.62000000    53.10000000
   H     24.98000000    -0.74000000    56.72000000
   H     26.89000000    -1.03000000    54.66000000
   H     24.29000000     0.52000000    54.54000000
   H     25.08000000     1.20000000    52.73000000
   H     25.81000000     1.29000000    56.29000000
   H     27.06000000     1.47000000    54.97000000
   H     25.58000000     2.46000000    54.96000000
   N     26.35000000    -2.43000000    52.99000000
   C     26.29000000    -3.48000000    51.99000000
   C     26.05000000    -4.90000000    52.47000000
   O     26.02000000    -5.82000000    51.65000000
   C     27.54000000    -3.40000000    51.11000000
   C     27.55000000    -3.89000000    49.67000000
   O     28.59000000    -4.01000000    51.83000000
   H     27.25000000    -2.03000000    53.20000000
   H     25.43000000    -3.28000000    51.36000000
   H     27.82000000    -2.35000000    51.04000000
   H     29.02000000    -3.22000000    52.16000000
   H     26.86000000    -3.27000000    49.10000000
   H     28.55000000    -3.63000000    49.32000000
   H     27.28000000    -4.94000000    49.61000000
   N     25.89000000    -5.14000000    53.77000000
   C     25.59000000    -6.46000000    54.30000000
   C     24.09000000    -6.66000000    54.45000000
   O     23.38000000    -5.71000000    54.78000000
   C     26.42000000    -6.57000000    55.57000000
   C     26.39000000    -7.93000000    56.27000000
   C     27.14000000    -8.02000000    57.60000000
   C     28.62000000    -7.65000000    57.56000000
   N     29.23000000    -7.78000000    58.88000000
   H     25.96000000    -4.35000000    54.40000000
   H     25.88000000    -7.19000000    53.55000000
   H     26.22000000    -5.83000000    56.34000000
   H     27.44000000    -6.58000000    55.18000000
   H     26.69000000    -8.69000000    55.56000000
   H     25.34000000    -8.09000000    56.50000000
   H     27.10000000    -9.04000000    58.00000000
   H     26.64000000    -7.36000000    58.31000000
   H     28.75000000    -6.63000000    57.20000000
   H     29.05000000    -8.22000000    56.74000000
   H     30.13000000    -7.31000000    58.84000000
   H     28.74000000    -7.45000000    59.70000000
   H     29.43000000    -8.76000000    59.02000000
   N     23.57000000    -7.86000000    54.18000000
   C     22.18000000    -8.22000000    54.38000000
   C     21.51000000    -8.45000000    53.03000000
   O     22.17000000    -8.84000000    52.06000000
   C     22.12000000    -9.44000000    55.30000000
   C     22.04000000    -9.05000000    56.78000000
   C     21.99000000   -10.22000000    57.76000000
   O     20.87000000   -10.40000000    58.29000000
   O     22.98000000   -10.95000000    57.96000000
   H     24.17000000    -8.48000000    53.65000000
   H     21.65000000    -7.43000000    54.91000000
   H     22.89000000   -10.16000000    55.05000000
   H     21.16000000    -9.87000000    55.04000000
   H     21.18000000    -8.41000000    56.93000000
   H     22.92000000    -8.43000000    56.94000000
   N     20.20000000    -8.32000000    52.83000000
   C     19.16000000    -7.79000000    53.68000000
   H     18.25200000    -8.38000000    53.55300000
   H     19.48100000    -7.83800000    54.72100000
   H     18.96100000    -6.75400000    53.40800000
   H     19.90000000    -8.66000000    51.92000000
  Ca     20.40000000    10.64000000    55.17000000
   O     18.88000000    11.96000000    53.60000000
   H     18.21000000    11.50000000    53.09000000
   H     19.03000000    12.78000000    53.13000000
   O     23.11000000    10.61000000    55.68000000
   H     23.55000000    10.13000000    56.37000000
   H     23.73000000    11.29000000    55.42000000
   O     20.80000000     9.64000000    52.80000000
   H     20.28000000     9.48000000    52.01000000
   H     21.70000000     9.48000000    52.52000000
   O     20.50000000    13.02000000    56.49000000
   H     19.77000000    13.63000000    56.39000000
   H     21.28000000    13.56000000    56.42000000

Ca 1.00



