%chk=loop2.holoCaM-CaMKII.run76.water2.chk
%nprocshared=20
%mem=10GB
%nosave
#b3lyp/svp scf=(tight,noincore,xqc) Test 
#IOP(5/87=12) Density=Current Pop=(MK,readradii) iop(6/33=2) iop(6/42=6)

loop2.holoCaM-CaMKII.run76.water2 

   -2  1 
   C     11.27000000    47.52000000    10.98000000
   C     10.68000000    48.77000000    10.34000000
   O     11.38000000    49.77000000    10.25000000
   H     12.20100000    47.77600000    11.48500000
   H     10.56400000    47.11400000    11.70500000
   H     11.46900000    46.77600000    10.20900000
   N      9.40000000    48.80000000     9.95000000
   C      8.83000000    49.81000000     9.08000000
   C      8.27000000    50.99000000     9.86000000
   O      7.54000000    50.82000000    10.84000000
   C      7.83000000    49.18000000     8.12000000
   C      7.25000000    50.10000000     7.05000000
   O      7.97000000    51.02000000     6.62000000
   O      6.14000000    49.90000000     6.52000000
   H      8.81000000    48.00000000    10.09000000
   H      9.70000000    49.98000000     8.45000000
   H      6.97000000    48.93000000     8.75000000
   H      8.18000000    48.24000000     7.71000000
   N      8.35000000    52.17000000     9.26000000
   C      7.65000000    53.39000000     9.61000000
   C      6.63000000    54.05000000     8.69000000
   O      5.85000000    54.87000000     9.16000000
   C      8.73000000    54.34000000    10.13000000
   H      9.08000000    52.36000000     8.58000000
   H      7.13000000    53.17000000    10.54000000
   H      9.37000000    53.86000000    10.87000000
   H      9.41000000    54.55000000     9.30000000
   H      8.25000000    55.26000000    10.46000000
   N      6.69000000    53.80000000     7.38000000
   C      6.00000000    54.57000000     6.37000000
   C      5.33000000    53.83000000     5.22000000
   O      4.76000000    54.44000000     4.31000000
   C      6.94000000    55.56000000     5.70000000
   C      8.17000000    54.83000000     5.17000000
   O      8.17000000    53.65000000     4.75000000
   O      9.26000000    55.44000000     5.10000000
   H      7.33000000    53.07000000     7.11000000
   H      5.16000000    55.08000000     6.85000000
   H      7.20000000    56.36000000     6.40000000
   H      6.43000000    56.04000000     4.87000000
   N      5.39000000    52.50000000     5.17000000
   C      4.57000000    51.72000000     4.26000000
   C      4.99000000    51.77000000     2.80000000
   O      4.34000000    51.16000000     1.95000000
   H      6.02000000    51.99000000     5.77000000
   H      3.55000000    52.11000000     4.26000000
   H      4.48000000    50.71000000     4.66000000
   N      6.19000000    52.30000000     2.55000000
   C      6.87000000    52.43000000     1.28000000
   C      7.37000000    51.12000000     0.69000000
   O      8.12000000    51.19000000    -0.28000000
   C      7.94000000    53.52000000     1.32000000
   C      9.32000000    53.08000000     1.79000000
   N     10.28000000    53.96000000     1.51000000
   O      9.60000000    52.05000000     2.39000000
   H      6.75000000    52.58000000     3.34000000
   H      6.13000000    52.82000000     0.58000000
   H      7.59000000    54.23000000     2.06000000
   H      8.10000000    54.03000000     0.37000000
   H     10.00000000    54.81000000     1.05000000
   H     11.22000000    53.80000000     1.85000000
   N      6.93000000    49.96000000     1.19000000
   C      7.34000000    48.68000000     0.68000000
   C      8.82000000    48.31000000     0.70000000
   O      9.14000000    47.30000000     0.07000000
   H      6.29000000    49.97000000     1.98000000
   H      7.08000000    48.68000000    -0.38000000
   H      6.81000000    47.90000000     1.23000000
   N      9.70000000    49.03000000     1.40000000
   C     11.15000000    48.93000000     1.35000000
   C     11.92000000    49.42000000     2.57000000
   O     11.46000000    50.23000000     3.37000000
   C     11.80000000    49.78000000     0.27000000
   C     11.51000000    49.33000000    -1.16000000
   O     11.44000000    51.14000000     0.41000000
   H      9.39000000    49.92000000     1.75000000
   H     11.53000000    47.92000000     1.21000000
   H     12.89000000    49.74000000     0.33000000
   H     11.00000000    51.29000000     1.25000000
   H     10.46000000    49.09000000    -1.27000000
   H     11.82000000    50.03000000    -1.95000000
   H     12.02000000    48.38000000    -1.31000000
   N     13.11000000    48.87000000     2.81000000
   C     13.94000000    49.18000000     3.95000000
   C     14.65000000    50.47000000     3.57000000
   O     15.38000000    50.52000000     2.58000000
   C     14.98000000    48.18000000     4.46000000
   C     14.71000000    46.71000000     4.15000000
   C     15.34000000    48.46000000     5.91000000
   C     15.69000000    45.59000000     4.50000000
   H     13.38000000    48.04000000     2.30000000
   H     13.30000000    49.36000000     4.82000000
   H     15.94000000    48.36000000     3.97000000
   H     14.42000000    46.51000000     3.12000000
   H     13.76000000    46.52000000     4.64000000
   H     16.07000000    47.75000000     6.31000000
   H     15.86000000    49.40000000     6.06000000
   H     14.44000000    48.47000000     6.53000000
   H     15.42000000    44.66000000     4.01000000
   H     16.70000000    45.85000000     4.15000000
   H     15.74000000    45.42000000     5.57000000
   N     14.29000000    51.60000000     4.19000000
   C     14.99000000    52.87000000     4.29000000
   C     16.19000000    52.73000000     5.21000000
   O     16.19000000    51.86000000     6.08000000
   C     14.04000000    53.97000000     4.76000000
   C     12.79000000    54.14000000     3.92000000
   O     11.82000000    53.38000000     4.10000000
   O     12.84000000    54.99000000     3.00000000
   H     13.54000000    51.54000000     4.87000000
   H     15.45000000    53.14000000     3.34000000
   H     14.60000000    54.89000000     4.93000000
   H     13.75000000    53.76000000     5.79000000
   N     17.14000000    53.67000000     5.18000000
   C     18.32000000    53.45000000     5.99000000
   C     18.35000000    53.71000000     7.49000000
   O     19.02000000    52.96000000     8.21000000
   C     19.39000000    54.25000000     5.25000000
   C     20.79000000    54.14000000     5.81000000
   C     21.43000000    55.34000000     6.16000000
   C     21.39000000    52.90000000     6.06000000
   C     22.69000000    55.27000000     6.78000000
   C     22.69000000    52.85000000     6.59000000
   C     23.31000000    54.03000000     7.00000000
   H     17.12000000    54.22000000     4.33000000
   H     18.55000000    52.40000000     5.83000000
   H     19.05000000    55.26000000     5.45000000
   H     19.34000000    54.09000000     4.17000000
   H     20.93000000    56.27000000     5.96000000
   H     20.88000000    52.00000000     5.80000000
   H     23.30000000    56.15000000     6.89000000
   H     23.12000000    51.90000000     6.86000000
   H     24.28000000    53.97000000     7.47000000
   N     17.56000000    54.62000000     8.06000000
   C     17.11000000    54.56000000     9.44000000
   C     16.56000000    53.17000000     9.72000000
   O     16.85000000    52.69000000    10.82000000
   C     16.03000000    55.63000000     9.61000000
   C     16.64000000    56.67000000     8.67000000
   C     17.20000000    55.90000000     7.48000000
   H     17.98000000    54.75000000    10.07000000
   H     15.09000000    55.27000000     9.17000000
   H     15.89000000    55.88000000    10.66000000
   H     16.03000000    57.51000000     8.33000000
   H     17.42000000    57.07000000     9.32000000
   H     16.36000000    55.71000000     6.82000000
   H     18.09000000    56.39000000     7.09000000
   N     15.74000000    52.56000000     8.87000000
   C     15.14000000    51.28000000     9.19000000
   C     16.12000000    50.11000000     9.14000000
   O     15.85000000    49.11000000     9.79000000
   C     13.92000000    51.07000000     8.29000000
   C     12.81000000    52.12000000     8.32000000
   C     11.82000000    51.89000000     7.19000000
   O     10.73000000    52.51000000     7.22000000
   O     12.03000000    51.14000000     6.22000000
   H     15.52000000    52.98000000     7.98000000
   H     14.76000000    51.39000000    10.20000000
   H     13.45000000    50.12000000     8.50000000
   H     14.32000000    50.95000000     7.28000000
   H     13.21000000    53.13000000     8.22000000
   H     12.25000000    51.98000000     9.25000000
   N     17.26000000    50.25000000     8.46000000
   C     18.36000000    49.31000000     8.44000000
   H     19.21500000    49.74100000     8.96100000
   H     18.06000000    48.38800000     8.93700000
   H     18.63500000    49.09400000     7.40800000
   H     17.32000000    51.08000000     7.89000000
  Ca      9.90000000    51.71000000     4.91000000
   O     10.16000000    49.10000000     5.97000000
   H      9.91000000    48.25000000     6.34000000
   H     10.97000000    49.33000000     6.43000000
   O      7.98000000    50.15000000     4.08000000
   H      7.80000000    49.21000000     3.99000000
   H      7.28000000    50.47000000     4.64000000

Ca 1.00



