%chk=loop4.apoCaM-CA-Ng.Init293.run24.water4.chk
%nprocshared=20
%mem=10GB
%nosave
#b3lyp/svp scf=(tight,noincore,xqc) Test 
#IOP(5/87=12) Density=Current Pop=(MK,readradii) iop(6/33=2) iop(6/42=6)

loop4.apoCaM-CA-Ng.Init293.run24.water4 

   -3  1 
   C     50.99000000    18.64000000    28.43000000
   C     51.78000000    19.41000000    27.38000000
   O     52.23000000    18.75000000    26.44000000
   H     50.00500000    18.39300000    28.03400000
   H     51.52000000    17.72200000    28.68300000
   H     50.87800000    19.25400000    29.32400000
   N     51.96000000    20.72000000    27.50000000
   C     52.55000000    21.66000000    26.57000000
   C     52.03000000    21.60000000    25.14000000
   O     52.75000000    21.43000000    24.15000000
   C     54.07000000    21.64000000    26.64000000
   C     54.84000000    20.36000000    26.34000000
   O     55.10000000    19.59000000    27.29000000
   O     55.22000000    20.11000000    25.18000000
   H     51.57000000    21.11000000    28.35000000
   H     52.30000000    22.66000000    26.93000000
   H     54.34000000    21.95000000    27.65000000
   H     54.45000000    22.47000000    26.04000000
   N     50.72000000    21.83000000    25.03000000
   C     49.89000000    21.74000000    23.85000000
   C     50.46000000    22.30000000    22.55000000
   O     49.91000000    21.90000000    21.53000000
   C     49.27000000    20.35000000    23.75000000
   C     48.44000000    19.88000000    24.95000000
   C     50.31000000    19.27000000    23.47000000
   C     47.22000000    20.74000000    25.26000000
   H     50.21000000    21.98000000    25.89000000
   H     49.09000000    22.45000000    24.02000000
   H     48.59000000    20.19000000    22.91000000
   H     48.99000000    19.65000000    25.85000000
   H     48.05000000    18.93000000    24.59000000
   H     49.83000000    18.30000000    23.34000000
   H     50.91000000    19.55000000    22.60000000
   H     51.03000000    19.02000000    24.25000000
   H     46.46000000    20.65000000    24.49000000
   H     46.78000000    20.37000000    26.19000000
   H     47.51000000    21.79000000    25.38000000
   N     51.44000000    23.20000000    22.56000000
   C     51.99000000    23.90000000    21.42000000
   C     53.15000000    23.19000000    20.73000000
   O     53.90000000    22.48000000    21.40000000
   C     52.45000000    25.29000000    21.85000000
   C     53.48000000    25.36000000    22.96000000
   O     53.23000000    24.79000000    24.04000000
   O     54.50000000    26.08000000    22.85000000
   H     52.00000000    23.31000000    23.40000000
   H     51.21000000    24.01000000    20.66000000
   H     51.52000000    25.77000000    22.16000000
   H     52.85000000    25.71000000    20.93000000
   N     53.40000000    23.32000000    19.43000000
   C     52.64000000    24.01000000    18.41000000
   C     53.28000000    23.68000000    17.07000000
   O     54.42000000    23.22000000    16.98000000
   H     54.27000000    22.86000000    19.18000000
   H     52.70000000    25.08000000    18.61000000
   H     51.60000000    23.73000000    18.53000000
   N     52.70000000    24.07000000    15.93000000
   C     51.49000000    24.86000000    15.86000000
   C     50.23000000    24.18000000    16.38000000
   O     49.50000000    24.90000000    17.06000000
   C     51.28000000    25.28000000    14.41000000
   C     49.98000000    26.06000000    14.28000000
   O     50.03000000    27.16000000    14.89000000
   O     49.01000000    25.58000000    13.65000000
   H     53.28000000    24.11000000    15.11000000
   H     51.53000000    25.81000000    16.40000000
   H     51.26000000    24.40000000    13.76000000
   H     52.13000000    25.82000000    13.99000000
   N     49.97000000    22.89000000    16.17000000
   C     50.59000000    21.86000000    15.36000000
   C     49.48000000    21.00000000    14.77000000
   O     48.30000000    21.10000000    15.06000000
   H     49.21000000    22.53000000    16.73000000
   H     51.30000000    21.26000000    15.93000000
   H     51.19000000    22.25000000    14.54000000
   N     50.02000000    20.00000000    14.07000000
   C     49.21000000    19.18000000    13.19000000
   C     49.06000000    17.74000000    13.67000000
   O     48.61000000    16.91000000    12.89000000
   C     49.77000000    19.28000000    11.78000000
   C     49.50000000    20.61000000    11.08000000
   C     49.87000000    21.87000000    11.84000000
   N     48.94000000    22.75000000    12.23000000
   O     51.04000000    22.11000000    12.13000000
   H     51.02000000    19.90000000    14.00000000
   H     48.20000000    19.60000000    13.23000000
   H     49.26000000    18.56000000    11.13000000
   H     50.80000000    18.91000000    11.74000000
   H     48.43000000    20.72000000    10.90000000
   H     50.05000000    20.71000000    10.14000000
   H     47.95000000    22.58000000    12.20000000
   H     49.30000000    23.49000000    12.82000000
   N     49.61000000    17.44000000    14.85000000
   C     49.58000000    16.14000000    15.50000000
   C     50.91000000    15.97000000    16.23000000
   O     51.21000000    16.82000000    17.06000000
   C     48.42000000    15.88000000    16.46000000
   C     48.23000000    14.58000000    17.23000000
   C     47.11000000    16.27000000    15.77000000
   H     50.04000000    18.23000000    15.32000000
   H     49.52000000    15.38000000    14.72000000
   H     48.60000000    16.66000000    17.20000000
   H     48.10000000    13.72000000    16.57000000
   H     49.18000000    14.45000000    17.75000000
   H     47.42000000    14.63000000    17.96000000
   H     46.26000000    16.20000000    16.44000000
   H     47.16000000    17.27000000    15.34000000
   H     46.80000000    15.64000000    14.94000000
   N     51.59000000    14.87000000    15.91000000
   C     52.91000000    14.57000000    16.44000000
   C     54.12000000    15.03000000    15.63000000
   O     55.21000000    14.62000000    16.02000000
   C     53.03000000    13.06000000    16.61000000
   C     52.04000000    12.64000000    17.69000000
   N     50.79000000    12.31000000    17.38000000
   O     52.44000000    12.68000000    18.86000000
   H     51.14000000    14.25000000    15.25000000
   H     52.89000000    15.06000000    17.41000000
   H     54.02000000    12.66000000    16.81000000
   H     52.75000000    12.60000000    15.67000000
   H     50.49000000    12.28000000    16.42000000
   H     50.20000000    11.98000000    18.13000000
   N     54.03000000    15.70000000    14.48000000
   C     55.13000000    16.09000000    13.62000000
   C     55.97000000    17.16000000    14.29000000
   O     55.45000000    18.14000000    14.84000000
   C     54.47000000    16.43000000    12.29000000
   C     55.35000000    16.81000000    11.12000000
   C     55.72000000    15.76000000    10.26000000
   C     55.95000000    18.07000000    11.08000000
   C     56.73000000    16.04000000     9.33000000
   C     56.93000000    18.31000000    10.11000000
   C     57.33000000    17.31000000     9.21000000
   O     58.36000000    17.57000000     8.36000000
   H     53.09000000    15.93000000    14.19000000
   H     55.84000000    15.26000000    13.51000000
   H     53.73000000    17.21000000    12.46000000
   H     53.87000000    15.55000000    12.02000000
   H     55.34000000    14.76000000    10.37000000
   H     55.69000000    18.80000000    11.83000000
   H     56.99000000    15.29000000     8.60000000
   H     57.41000000    19.28000000    10.20000000
   H     58.60000000    18.50000000     8.39000000
   N     57.28000000    16.94000000    14.32000000
   C     58.27000000    17.79000000    14.95000000
   C     57.95000000    18.19000000    16.38000000
   O     58.14000000    19.34000000    16.79000000
   C     58.73000000    18.98000000    14.10000000
   C     59.28000000    18.59000000    12.74000000
   C     60.66000000    17.95000000    12.81000000
   O     61.66000000    18.65000000    13.07000000
   O     60.71000000    16.74000000    12.50000000
   H     57.66000000    16.24000000    13.69000000
   H     59.18000000    17.19000000    14.97000000
   H     59.43000000    19.61000000    14.64000000
   H     57.81000000    19.55000000    13.97000000
   H     59.25000000    19.43000000    12.05000000
   H     58.61000000    17.94000000    12.18000000
   N     57.37000000    17.27000000    17.15000000
   C     56.83000000    17.57000000    18.47000000
   C     57.29000000    16.57000000    19.51000000
   O     57.19000000    16.81000000    20.72000000
   C     55.31000000    17.59000000    18.32000000
   C     54.62000000    18.95000000    18.23000000
   C     54.62000000    19.54000000    19.63000000
   O     53.63000000    19.57000000    20.40000000
   O     55.65000000    20.09000000    20.07000000
   H     57.11000000    16.44000000    16.65000000
   H     57.13000000    18.54000000    18.87000000
   H     54.79000000    17.10000000    19.15000000
   H     54.96000000    16.97000000    17.50000000
   H     53.60000000    18.85000000    17.85000000
   H     55.23000000    19.53000000    17.54000000
   N     57.79000000    15.39000000    19.14000000
   C     58.34000000    14.42000000    20.06000000
   H     59.25300000    14.81700000    20.50300000
   H     57.61500000    14.21400000    20.84800000
   H     58.56700000    13.49800000    19.52400000
   H     57.90000000    15.25000000    18.14000000
  Ca     54.75000000    20.41000000    22.59000000
   O     56.49000000    18.42000000    22.69000000
   H     57.20000000    18.44000000    23.33000000
   H     56.85000000    17.92000000    21.95000000
   O     57.32000000    21.33000000    22.13000000
   H     57.65000000    21.06000000    22.99000000
   H     57.91000000    22.02000000    21.84000000
   O     53.36000000    18.35000000    23.67000000
   H     54.02000000    17.76000000    24.01000000
   H     52.85000000    18.61000000    24.44000000
   O     55.69000000    22.63000000    23.84000000
   H     55.20000000    23.45000000    23.78000000
   H     56.53000000    22.88000000    24.23000000

Ca 1.00



