%chk=loop4.holoCaM-CaMKII.run25.water2.chk
%nprocshared=20
%mem=10GB
%nosave
#b3lyp/svp scf=(tight,noincore,xqc) Test 
#IOP(5/87=12) Density=Current Pop=(MK,readradii) iop(6/33=2) iop(6/42=6)

loop4.holoCaM-CaMKII.run25.water2 

   -3  1 
   C     80.35000000    60.43000000    40.36000000
   C     79.56000000    60.21000000    41.63000000
   O     78.45000000    60.72000000    41.77000000
   H     81.34300000    59.99400000    40.47000000
   H     79.83600000    59.95500000    39.52500000
   H     80.44300000    61.49900000    40.17000000
   N     80.06000000    59.40000000    42.57000000
   C     79.42000000    58.98000000    43.80000000
   C     79.58000000    60.08000000    44.85000000
   O     80.65000000    60.40000000    45.35000000
   C     79.90000000    57.61000000    44.24000000
   C     79.24000000    57.19000000    45.55000000
   O     78.22000000    57.83000000    45.89000000
   O     79.78000000    56.26000000    46.18000000
   H     80.95000000    58.95000000    42.42000000
   H     78.37000000    58.86000000    43.54000000
   H     80.98000000    57.66000000    44.42000000
   H     79.67000000    56.80000000    43.55000000
   N     78.44000000    60.69000000    45.18000000
   C     78.51000000    61.87000000    46.02000000
   C     78.52000000    61.55000000    47.51000000
   O     79.01000000    62.36000000    48.29000000
   C     77.37000000    62.78000000    45.59000000
   C     77.54000000    63.29000000    44.16000000
   C     77.09000000    63.97000000    46.51000000
   C     78.54000000    64.38000000    43.78000000
   H     77.56000000    60.55000000    44.69000000
   H     79.45000000    62.38000000    45.80000000
   H     76.46000000    62.18000000    45.54000000
   H     76.63000000    63.69000000    43.70000000
   H     77.54000000    62.47000000    43.44000000
   H     76.30000000    64.63000000    46.14000000
   H     76.74000000    63.65000000    47.49000000
   H     77.93000000    64.62000000    46.72000000
   H     78.38000000    64.75000000    42.77000000
   H     78.46000000    65.16000000    44.53000000
   H     79.54000000    63.93000000    43.78000000
   N     77.95000000    60.41000000    47.91000000
   C     77.58000000    60.08000000    49.27000000
   C     78.29000000    58.82000000    49.75000000
   O     78.16000000    58.46000000    50.91000000
   C     76.07000000    60.14000000    49.51000000
   C     75.38000000    59.25000000    48.49000000
   O     75.92000000    58.21000000    48.05000000
   O     74.20000000    59.56000000    48.18000000
   H     77.64000000    59.82000000    47.16000000
   H     78.01000000    60.95000000    49.77000000
   H     75.68000000    61.14000000    49.33000000
   H     75.83000000    59.87000000    50.54000000
   N     79.20000000    58.24000000    48.96000000
   C     80.22000000    57.30000000    49.38000000
   C     79.78000000    55.87000000    49.70000000
   O     80.53000000    55.19000000    50.38000000
   H     79.25000000    58.51000000    47.99000000
   H     80.78000000    57.65000000    50.24000000
   H     80.91000000    57.23000000    48.54000000
   N     78.62000000    55.44000000    49.19000000
   C     78.20000000    54.06000000    49.31000000
   C     78.91000000    53.14000000    48.33000000
   O     78.74000000    51.93000000    48.47000000
   C     76.68000000    54.02000000    49.27000000
   C     76.14000000    54.81000000    48.08000000
   O     75.02000000    55.37000000    48.07000000
   O     76.76000000    54.84000000    47.00000000
   H     78.12000000    56.17000000    48.72000000
   H     78.51000000    53.67000000    50.28000000
   H     76.28000000    54.46000000    50.18000000
   H     76.32000000    53.00000000    49.13000000
   N     79.63000000    53.69000000    47.35000000
   C     80.32000000    52.99000000    46.29000000
   C     79.44000000    52.64000000    45.10000000
   O     79.92000000    52.04000000    44.14000000
   H     79.53000000    54.66000000    47.07000000
   H     80.82000000    52.12000000    46.73000000
   H     81.03000000    53.70000000    45.87000000
   N     78.17000000    53.06000000    45.11000000
   C     77.34000000    52.90000000    43.93000000
   C     77.08000000    54.28000000    43.34000000
   O     77.04000000    55.27000000    44.06000000
   C     76.02000000    52.24000000    44.31000000
   C     76.23000000    50.81000000    44.81000000
   C     76.04000000    49.76000000    43.72000000
   N     76.60000000    48.56000000    43.90000000
   O     75.59000000    50.06000000    42.62000000
   H     77.79000000    53.56000000    45.91000000
   H     77.85000000    52.32000000    43.17000000
   H     75.38000000    52.29000000    43.43000000
   H     75.53000000    52.88000000    45.04000000
   H     75.49000000    50.70000000    45.60000000
   H     77.27000000    50.74000000    45.12000000
   H     77.12000000    48.34000000    44.74000000
   H     76.34000000    47.80000000    43.29000000
   N     76.70000000    54.39000000    42.06000000
   C     76.45000000    55.59000000    41.29000000
   C     75.05000000    55.54000000    40.68000000
   O     74.78000000    54.61000000    39.91000000
   C     77.50000000    55.83000000    40.21000000
   C     77.32000000    57.03000000    39.29000000
   C     78.73000000    56.20000000    41.04000000
   H     76.88000000    53.52000000    41.59000000
   H     76.35000000    56.42000000    41.98000000
   H     77.72000000    54.90000000    39.68000000
   H     76.49000000    56.84000000    38.61000000
   H     76.94000000    57.92000000    39.80000000
   H     78.19000000    57.26000000    38.68000000
   H     79.55000000    56.32000000    40.33000000
   H     78.56000000    57.18000000    41.49000000
   H     79.02000000    55.42000000    41.74000000
   N     74.21000000    56.43000000    41.20000000
   C     72.84000000    56.54000000    40.74000000
   C     72.64000000    57.16000000    39.37000000
   O     73.40000000    58.08000000    39.06000000
   C     72.15000000    57.33000000    41.85000000
   C     70.64000000    57.14000000    41.97000000
   N     70.03000000    57.60000000    43.06000000
   O     70.00000000    56.60000000    41.07000000
   H     74.49000000    57.04000000    41.95000000
   H     72.42000000    55.54000000    40.62000000
   H     72.36000000    58.40000000    41.79000000
   H     72.65000000    56.96000000    42.74000000
   H     70.52000000    57.96000000    43.87000000
   H     69.06000000    57.39000000    43.23000000
   N     71.52000000    56.87000000    38.71000000
   C     71.14000000    57.58000000    37.51000000
   C     71.12000000    59.07000000    37.81000000
   O     71.79000000    59.83000000    37.11000000
   C     69.77000000    57.10000000    37.05000000
   C     69.43000000    57.62000000    35.68000000
   C     69.73000000    56.85000000    34.55000000
   C     68.94000000    58.92000000    35.51000000
   C     69.43000000    57.32000000    33.27000000
   C     68.75000000    59.46000000    34.23000000
   C     69.08000000    58.68000000    33.10000000
   O     68.74000000    59.12000000    31.85000000
   H     70.95000000    56.12000000    39.09000000
   H     71.85000000    57.29000000    36.73000000
   H     69.09000000    57.50000000    37.80000000
   H     69.69000000    56.01000000    37.08000000
   H     70.09000000    55.84000000    34.67000000
   H     68.73000000    59.52000000    36.39000000
   H     69.56000000    56.70000000    32.40000000
   H     68.45000000    60.49000000    34.15000000
   H     68.48000000    60.04000000    31.81000000
   N     70.53000000    59.52000000    38.92000000
   C     70.57000000    60.90000000    39.37000000
   C     71.97000000    61.48000000    39.46000000
   O     72.23000000    62.59000000    39.01000000
   C     69.87000000    61.08000000    40.71000000
   C     68.35000000    61.02000000    40.69000000
   C     67.71000000    61.47000000    42.00000000
   O     67.10000000    60.66000000    42.74000000
   O     67.89000000    62.65000000    42.36000000
   H     69.88000000    58.90000000    39.39000000
   H     70.17000000    61.64000000    38.68000000
   H     70.12000000    62.04000000    41.17000000
   H     70.16000000    60.29000000    41.41000000
   H     67.97000000    60.05000000    40.37000000
   H     68.08000000    61.62000000    39.83000000
   N     72.89000000    60.75000000    40.09000000
   C     74.27000000    61.15000000    40.26000000
   C     75.05000000    61.17000000    38.95000000
   O     75.79000000    62.12000000    38.69000000
   C     74.96000000    60.16000000    41.19000000
   C     74.49000000    60.25000000    42.63000000
   C     75.19000000    59.37000000    43.65000000
   O     75.70000000    59.85000000    44.68000000
   O     75.21000000    58.12000000    43.51000000
   H     72.63000000    59.81000000    40.38000000
   H     74.30000000    62.11000000    40.77000000
   H     76.04000000    60.29000000    41.21000000
   H     74.86000000    59.18000000    40.72000000
   H     73.43000000    60.01000000    42.78000000
   H     74.58000000    61.32000000    42.86000000
   N     74.82000000    60.23000000    38.03000000
   C     75.52000000    60.03000000    36.77000000
   H     76.52200000    59.64900000    36.96800000
   H     74.97300000    59.31100000    36.16000000
   H     75.59100000    60.97900000    36.23900000
   H     74.19000000    59.51000000    38.34000000
  Ca     75.79000000    57.03000000    45.76000000
   O     73.97000000    55.16000000    45.16000000
   H     73.18000000    55.17000000    45.70000000
   H     74.31000000    54.27000000    45.24000000
   O     73.36000000    57.95000000    46.34000000
   H     72.52000000    58.22000000    45.98000000
   H     73.50000000    58.52000000    47.09000000

Ca 1.00



