%chk=loop1.holoCaM-CaMKII.run67.water2.chk
%nprocshared=20
%mem=10GB
%nosave
#b3lyp/svp scf=(tight,noincore,xqc) Test 
#IOP(5/87=12) Density=Current Pop=(MK,readradii) iop(6/33=2) iop(6/42=6)

loop1.holoCaM-CaMKII.run67.water2 

   0  1 
   C     27.22000000    57.59000000    94.87200000
   C     27.23000000    58.81000000    93.96200000
   O     26.40000000    58.96000000    93.07200000
   H     26.51900000    57.75400000    95.69000000
   H     26.91400000    56.71300000    94.30200000
   H     28.21900000    57.43000000    95.27700000
   N     28.15000000    59.78000000    94.09200000
   C     28.15000000    61.01000000    93.33200000
   C     28.76000000    60.85000000    91.94200000
   O     29.96000000    60.85000000    91.70200000
   C     28.82000000    62.11000000    94.15200000
   C     28.93000000    63.45000000    93.42200000
   O     29.86000000    64.22000000    93.75200000
   O     28.15000000    63.81000000    92.52200000
   H     28.94000000    59.65000000    94.70200000
   H     27.12000000    61.32000000    93.16200000
   H     29.86000000    61.82000000    94.29200000
   H     28.34000000    62.28000000    95.11200000
   N     27.87000000    60.63000000    90.98200000
   C     28.14000000    60.17000000    89.63200000
   C     28.14000000    61.27000000    88.57200000
   O     28.30000000    60.91000000    87.41200000
   C     27.07000000    59.12000000    89.37200000
   C     27.41000000    57.82000000    90.10200000
   C     28.60000000    57.02000000    89.59200000
   C     28.77000000    55.68000000    90.32200000
   N     27.56000000    55.07000000    90.89200000
   H     26.89000000    60.56000000    91.24200000
   H     29.08000000    59.63000000    89.64200000
   H     27.09000000    58.88000000    88.31200000
   H     26.11000000    59.37000000    89.81200000
   H     26.55000000    57.17000000    90.22200000
   H     27.65000000    58.05000000    91.14200000
   H     29.46000000    57.69000000    89.63200000
   H     28.44000000    56.83000000    88.53200000
   H     29.43000000    55.79000000    91.18200000
   H     29.18000000    54.95000000    89.63200000
   H     27.04000000    55.72000000    91.46200000
   H     26.91000000    54.78000000    90.17200000
   H     27.91000000    54.23000000    91.31200000
   N     28.17000000    62.55000000    88.93200000
   C     28.74000000    63.59000000    88.10200000
   C     29.80000000    64.47000000    88.75200000
   O     30.38000000    65.30000000    88.04200000
   C     27.58000000    64.45000000    87.58200000
   C     26.54000000    64.79000000    88.63200000
   O     26.88000000    65.15000000    89.78200000
   O     25.35000000    64.81000000    88.25200000
   H     28.07000000    62.80000000    89.91200000
   H     29.15000000    63.19000000    87.17200000
   H     27.14000000    63.96000000    86.71200000
   H     27.96000000    65.41000000    87.23200000
   N     30.09000000    64.21000000    90.03200000
   C     31.27000000    64.79000000    90.64200000
   C     31.02000000    66.26000000    90.96200000
   O     31.57000000    67.14000000    90.30200000
   H     29.60000000    63.49000000    90.53200000
   H     32.04000000    64.74000000    89.87200000
   H     31.58000000    64.23000000    91.52200000
   N     30.25000000    66.54000000    92.01200000
   C     30.16000000    67.87000000    92.58200000
   C     30.23000000    67.92000000    94.10200000
   O     30.04000000    69.02000000    94.63200000
   C     28.85000000    68.51000000    92.10200000
   C     27.69000000    67.54000000    92.26200000
   O     26.88000000    67.32000000    91.34200000
   O     27.51000000    66.90000000    93.32200000
   H     29.89000000    65.78000000    92.57200000
   H     30.99000000    68.50000000    92.24200000
   H     29.03000000    68.80000000    91.07200000
   H     28.68000000    69.44000000    92.64200000
   N     30.38000000    66.80000000    94.81200000
   C     30.50000000    66.73000000    96.26200000
   C     29.11000000    66.65000000    96.87200000
   O     29.03000000    66.85000000    98.08200000
   H     30.54000000    65.95000000    94.30200000
   H     30.99000000    67.65000000    96.60200000
   H     31.08000000    65.86000000    96.56200000
   N     28.03000000    66.38000000    96.14200000
   C     26.70000000    66.22000000    96.70200000
   C     26.00000000    65.02000000    96.08200000
   O     26.26000000    64.64000000    94.94200000
   C     25.90000000    67.51000000    96.57200000
   C     26.39000000    68.56000000    97.56200000
   O     26.01000000    68.03000000    95.26200000
   H     28.24000000    66.20000000    95.17200000
   H     26.86000000    66.02000000    97.76200000
   H     24.87000000    67.21000000    96.76200000
   H     26.74000000    67.59000000    94.83200000
   H     25.73000000    69.43000000    97.51200000
   H     26.24000000    68.15000000    98.56200000
   H     27.42000000    68.85000000    97.33200000
   N     25.08000000    64.38000000    96.81200000
   C     24.31000000    63.27000000    96.27200000
   C     22.86000000    63.71000000    96.12200000
   O     22.26000000    64.24000000    97.05200000
   C     24.66000000    62.16000000    97.26200000
   C     26.05000000    61.56000000    97.06200000
   C     23.61000000    61.06000000    97.36200000
   C     26.51000000    60.85000000    98.33200000
   H     24.95000000    64.69000000    97.76200000
   H     24.66000000    62.90000000    95.30200000
   H     24.64000000    62.55000000    98.28200000
   H     26.74000000    62.39000000    96.89200000
   H     26.06000000    60.87000000    96.21200000
   H     23.88000000    60.10000000    97.79200000
   H     22.75000000    61.49000000    97.89200000
   H     23.38000000    60.80000000    96.33200000
   H     26.00000000    61.19000000    99.23200000
   H     26.34000000    59.77000000    98.27200000
   H     27.58000000    61.01000000    98.48200000
   N     22.25000000    63.33000000    94.99200000
   C     20.83000000    63.47000000    94.75200000
   C     20.08000000    62.21000000    95.18200000
   O     20.63000000    61.13000000    95.34200000
   C     20.48000000    63.85000000    93.31200000
   C     21.39000000    64.93000000    92.74200000
   O     20.78000000    62.80000000    92.41200000
   H     22.77000000    62.89000000    94.25200000
   H     20.53000000    64.33000000    95.35200000
   H     19.42000000    64.09000000    93.28200000
   H     20.57000000    63.11000000    91.53200000
   H     22.41000000    64.61000000    92.57200000
   H     20.98000000    65.27000000    91.79200000
   H     21.45000000    65.77000000    93.43200000
   N     18.77000000    62.29000000    95.40200000
   C     17.90000000    61.13000000    95.45200000
   C     18.10000000    59.99000000    94.46200000
   O     18.05000000    58.82000000    94.82200000
   C     16.40000000    61.39000000    95.40200000
   C     15.93000000    61.87000000    96.77200000
   O     16.02000000    62.28000000    94.37200000
   H     18.43000000    63.24000000    95.40200000
   H     18.17000000    60.57000000    96.34200000
   H     15.89000000    60.44000000    95.22200000
   H     15.58000000    63.05000000    94.73200000
   H     15.68000000    60.97000000    97.33200000
   H     16.67000000    62.49000000    97.28200000
   H     15.03000000    62.48000000    96.66200000
   N     18.43000000    60.42000000    93.23200000
   C     18.79000000    59.57000000    92.11200000
   C     20.13000000    58.86000000    92.23200000
   O     20.26000000    57.65000000    92.04200000
   C     18.57000000    60.39000000    90.84200000
   C     18.86000000    59.63000000    89.55200000
   C     18.55000000    60.40000000    88.27200000
   C     17.07000000    60.23000000    87.93200000
   N     16.50000000    61.24000000    87.03200000
   H     18.55000000    61.42000000    93.14200000
   H     18.00000000    58.82000000    92.06200000
   H     19.22000000    61.26000000    90.93200000
   H     17.56000000    60.79000000    90.83200000
   H     18.36000000    58.66000000    89.48200000
   H     19.93000000    59.44000000    89.67200000
   H     19.16000000    60.04000000    87.44200000
   H     18.77000000    61.45000000    88.42200000
   H     16.45000000    60.11000000    88.83200000
   H     16.93000000    59.32000000    87.35200000
   H     15.52000000    61.16000000    86.78200000
   H     16.65000000    62.17000000    87.41200000
   H     16.88000000    61.17000000    86.10200000
   N     21.14000000    59.63000000    92.63200000
   C     22.49000000    59.23000000    92.97200000
   C     22.46000000    58.25000000    94.13200000
   O     23.18000000    57.26000000    94.20200000
   C     23.45000000    60.41000000    93.13200000
   C     23.57000000    61.15000000    91.80200000
   C     24.50000000    62.35000000    91.91200000
   O     25.22000000    62.75000000    90.97200000
   O     24.50000000    63.08000000    92.93200000
   H     20.94000000    60.62000000    92.56200000
   H     22.76000000    58.51000000    92.19200000
   H     24.41000000    60.06000000    93.51200000
   H     23.04000000    61.10000000    93.86200000
   H     22.65000000    61.53000000    91.35200000
   H     24.10000000    60.49000000    91.11200000
   N     21.54000000    58.42000000    95.08200000
   C     21.38000000    57.58000000    96.25200000
   H     20.33400000    57.28700000    96.34800000
   H     21.99800000    56.68800000    96.14700000
   H     21.68500000    58.13200000    97.14100000
   H     21.05000000    59.31000000    95.06200000
  Ca     26.00000000    65.18000000    92.17000000
   O     23.96000000    65.55000000    90.35000000
   H     24.24000000    65.13000000    89.54000000
   H     23.01000000    65.63000000    90.26000000
   O     24.22000000    66.92000000    93.24000000
   H     24.64000000    67.53000000    93.84000000
   H     23.58000000    67.44000000    92.76000000

Ca 1.00



