%chk=loop2.holoCaM-CaMKII.run52.water1.chk
%nprocshared=20
%mem=10GB
%nosave
#b3lyp/svp scf=(tight,noincore,xqc) Test 
#IOP(5/87=12) Density=Current Pop=(MK,readradii) iop(6/33=2) iop(6/42=6)

loop2.holoCaM-CaMKII.run52.water1 

   -2  1 
   C      8.96000000    67.53000000     8.55000000
   C      8.05000000    68.15000000     7.50000000
   O      7.83000000    69.36000000     7.52000000
   H      9.85200000    68.14500000     8.66600000
   H      8.43200000    67.47400000     9.50200000
   H      9.24900000    66.52700000     8.23500000
   N      7.51000000    67.37000000     6.55000000
   C      6.96000000    67.86000000     5.31000000
   C      5.85000000    68.89000000     5.50000000
   O      4.98000000    68.64000000     6.33000000
   C      6.49000000    66.70000000     4.44000000
   C      6.13000000    67.07000000     3.01000000
   O      6.18000000    68.25000000     2.60000000
   O      5.80000000    66.11000000     2.28000000
   H      7.69000000    66.38000000     6.66000000
   H      7.79000000    68.30000000     4.75000000
   H      5.59000000    66.30000000     4.89000000
   H      7.32000000    65.98000000     4.44000000
   N      5.90000000    70.03000000     4.80000000
   C      5.02000000    71.16000000     5.01000000
   C      4.15000000    71.54000000     3.82000000
   O      3.33000000    72.45000000     3.93000000
   C      5.80000000    72.28000000     5.68000000
   H      6.67000000    70.18000000     4.16000000
   H      4.28000000    70.86000000     5.75000000
   H      6.38000000    72.05000000     6.57000000
   H      6.47000000    72.75000000     4.95000000
   H      5.03000000    73.00000000     5.95000000
   N      4.21000000    70.74000000     2.75000000
   C      3.24000000    70.78000000     1.67000000
   C      2.59000000    69.43000000     1.44000000
   O      1.45000000    69.40000000     0.99000000
   C      4.03000000    71.27000000     0.46000000
   C      5.35000000    70.61000000     0.09000000
   O      6.42000000    71.25000000     0.00000000
   O      5.37000000    69.36000000     0.12000000
   H      4.87000000    69.97000000     2.79000000
   H      2.42000000    71.46000000     1.91000000
   H      4.21000000    72.34000000     0.56000000
   H      3.39000000    71.14000000    -0.41000000
   N      3.17000000    68.24000000     1.65000000
   C      2.63000000    66.94000000     1.32000000
   C      3.08000000    66.27000000     0.03000000
   O      2.65000000    65.16000000    -0.31000000
   H      4.13000000    68.35000000     1.94000000
   H      1.55000000    67.08000000     1.22000000
   H      2.85000000    66.19000000     2.08000000
   N      3.99000000    66.92000000    -0.69000000
   C      4.58000000    66.42000000    -1.91000000
   C      5.48000000    65.21000000    -1.66000000
   O      5.65000000    64.39000000    -2.56000000
   C      5.19000000    67.61000000    -2.65000000
   C      6.61000000    68.00000000    -2.26000000
   N      7.17000000    68.98000000    -2.97000000
   O      7.20000000    67.59000000    -1.27000000
   H      4.39000000    67.76000000    -0.29000000
   H      3.75000000    66.09000000    -2.53000000
   H      4.62000000    68.54000000    -2.59000000
   H      5.28000000    67.31000000    -3.69000000
   H      6.66000000    69.36000000    -3.76000000
   H      8.14000000    69.19000000    -2.80000000
   N      5.93000000    65.04000000    -0.42000000
   C      6.77000000    63.91000000    -0.05000000
   C      8.24000000    64.01000000    -0.42000000
   O      8.92000000    62.98000000    -0.47000000
   H      5.66000000    65.63000000     0.36000000
   H      6.38000000    62.97000000    -0.45000000
   H      6.82000000    63.74000000     1.02000000
   N      8.75000000    65.20000000    -0.74000000
   C     10.16000000    65.43000000    -1.01000000
   C     10.59000000    66.62000000    -0.17000000
   O      9.88000000    67.60000000     0.07000000
   C     10.21000000    65.64000000    -2.52000000
   C     11.57000000    66.04000000    -3.09000000
   O      9.87000000    64.48000000    -3.24000000
   H      8.06000000    65.89000000    -0.98000000
   H     10.87000000    64.64000000    -0.78000000
   H      9.46000000    66.37000000    -2.82000000
   H      9.29000000    64.79000000    -3.95000000
   H     11.49000000    66.02000000    -4.18000000
   H     11.75000000    67.01000000    -2.63000000
   H     12.38000000    65.38000000    -2.78000000
   N     11.84000000    66.62000000     0.29000000
   C     12.37000000    67.64000000     1.16000000
   C     12.87000000    68.79000000     0.30000000
   O     13.83000000    68.70000000    -0.46000000
   C     13.55000000    67.04000000     1.91000000
   C     13.00000000    66.08000000     2.97000000
   C     14.61000000    67.94000000     2.54000000
   C     14.06000000    65.28000000     3.71000000
   H     12.48000000    65.91000000    -0.04000000
   H     11.57000000    67.98000000     1.82000000
   H     14.15000000    66.43000000     1.23000000
   H     12.27000000    65.43000000     2.48000000
   H     12.52000000    66.65000000     3.76000000
   H     14.21000000    68.53000000     3.37000000
   H     15.44000000    67.33000000     2.89000000
   H     15.03000000    68.67000000     1.85000000
   H     13.53000000    64.52000000     4.29000000
   H     14.78000000    64.79000000     3.05000000
   H     14.65000000    65.90000000     4.38000000
   N     12.31000000    69.94000000     0.68000000
   C     12.78000000    71.30000000     0.52000000
   C     13.83000000    71.71000000     1.54000000
   O     13.78000000    71.28000000     2.69000000
   C     11.55000000    72.21000000     0.62000000
   C     10.35000000    71.85000000    -0.24000000
   O      9.61000000    70.90000000     0.10000000
   O     10.06000000    72.45000000    -1.29000000
   H     11.43000000    69.85000000     1.16000000
   H     13.27000000    71.54000000    -0.43000000
   H     11.78000000    73.24000000     0.37000000
   H     11.10000000    72.20000000     1.61000000
   N     14.65000000    72.76000000     1.40000000
   C     15.60000000    73.23000000     2.38000000
   C     14.99000000    73.72000000     3.68000000
   O     15.54000000    73.37000000     4.72000000
   C     16.63000000    74.22000000     1.85000000
   C     17.79000000    74.62000000     2.73000000
   C     17.73000000    75.88000000     3.32000000
   C     18.85000000    73.76000000     3.07000000
   C     18.81000000    76.30000000     4.11000000
   C     19.79000000    74.07000000     4.05000000
   C     19.79000000    75.39000000     4.51000000
   H     14.60000000    73.30000000     0.54000000
   H     16.15000000    72.34000000     2.71000000
   H     16.13000000    75.16000000     1.63000000
   H     17.00000000    73.87000000     0.88000000
   H     16.97000000    76.58000000     2.99000000
   H     18.81000000    72.72000000     2.78000000
   H     18.77000000    77.31000000     4.50000000
   H     20.49000000    73.29000000     4.35000000
   H     20.51000000    75.62000000     5.28000000
   N     13.83000000    74.39000000     3.67000000
   C     13.14000000    74.75000000     4.89000000
   C     12.75000000    73.57000000     5.76000000
   O     12.90000000    73.70000000     6.97000000
   C     11.91000000    75.59000000     4.54000000
   C     12.27000000    76.10000000     3.14000000
   C     13.15000000    75.00000000     2.54000000
   H     13.72000000    75.45000000     5.48000000
   H     11.03000000    74.96000000     4.40000000
   H     11.72000000    76.41000000     5.22000000
   H     11.40000000    76.29000000     2.52000000
   H     12.88000000    77.00000000     3.20000000
   H     12.48000000    74.25000000     2.13000000
   H     13.87000000    75.39000000     1.82000000
   N     12.52000000    72.42000000     5.12000000
   C     12.06000000    71.23000000     5.80000000
   C     13.22000000    70.40000000     6.32000000
   O     13.17000000    69.83000000     7.41000000
   C     11.12000000    70.44000000     4.90000000
   C      9.97000000    71.25000000     4.31000000
   C      9.20000000    70.48000000     3.25000000
   O      8.05000000    70.83000000     2.91000000
   O      9.71000000    69.57000000     2.56000000
   H     12.59000000    72.43000000     4.11000000
   H     11.54000000    71.55000000     6.71000000
   H     10.91000000    69.50000000     5.42000000
   H     11.70000000    70.09000000     4.05000000
   H     10.38000000    72.19000000     3.93000000
   H      9.34000000    71.61000000     5.13000000
   N     14.34000000    70.39000000     5.59000000
   C     15.67000000    70.07000000     6.07000000
   H     16.33400000    70.91600000     5.89100000
   H     15.63000000    69.86000000     7.13900000
   H     16.04700000    69.19500000     5.54100000
   H     14.32000000    70.83000000     4.68000000
  Ca      7.91000000    69.16000000     0.79000000
   O      9.28000000    66.88000000     2.67000000
   H      9.98000000    66.29000000     2.96000000
   H      9.59000000    67.75000000     2.91000000

Ca 1.00



