%chk=loop2.apoCaM-CA-Ng.Init31.run47.water4.chk
%nprocshared=20
%mem=10GB
%nosave
#b3lyp/svp scf=(tight,noincore,xqc) Test 
#IOP(5/87=12) Density=Current Pop=(MK,readradii) iop(6/33=2) iop(6/42=6)

loop2.apoCaM-CA-Ng.Init31.run47.water4 

   -2  1 
   C    121.98000000    47.99000000    14.04000000
   C    121.21000000    49.27000000    14.33000000
   O    120.13000000    49.48000000    13.78000000
   H    122.94200000    48.02200000    14.55100000
   H    121.40800000    47.13300000    14.39500000
   H    122.14300000    47.89900000    12.96600000
   N    121.70000000    50.32000000    14.99000000
   C    123.03000000    50.43000000    15.57000000
   C    123.61000000    51.82000000    15.32000000
   O    122.96000000    52.85000000    15.12000000
   C    122.95000000    50.24000000    17.08000000
   C    122.02000000    51.15000000    17.87000000
   O    121.20000000    51.93000000    17.35000000
   O    122.04000000    51.04000000    19.12000000
   H    121.25000000    51.22000000    14.94000000
   H    123.69000000    49.70000000    15.11000000
   H    123.95000000    50.41000000    17.49000000
   H    122.82000000    49.17000000    17.25000000
   N    124.94000000    51.86000000    15.35000000
   C    125.87000000    52.97000000    15.31000000
   C    125.54000000    54.17000000    16.18000000
   O    126.11000000    54.30000000    17.27000000
   C    126.18000000    53.38000000    13.88000000
   H    125.25000000    50.90000000    15.44000000
   H    126.77000000    52.56000000    15.76000000
   H    126.60000000    52.60000000    13.24000000
   H    125.33000000    53.87000000    13.40000000
   H    126.95000000    54.16000000    13.86000000
   N    124.59000000    55.04000000    15.82000000
   C    124.23000000    56.26000000    16.50000000
   C    123.17000000    56.01000000    17.57000000
   O    122.26000000    55.19000000    17.48000000
   C    123.79000000    57.35000000    15.51000000
   C    122.58000000    56.94000000    14.68000000
   O    122.21000000    55.75000000    14.58000000
   O    122.03000000    57.87000000    14.06000000
   H    123.97000000    54.70000000    15.10000000
   H    125.13000000    56.61000000    16.99000000
   H    124.57000000    57.79000000    14.89000000
   H    123.41000000    58.14000000    16.15000000
   N    123.23000000    56.71000000    18.70000000
   C    122.15000000    56.79000000    19.67000000
   C    120.93000000    57.64000000    19.37000000
   O    120.98000000    58.67000000    18.69000000
   H    124.03000000    57.32000000    18.80000000
   H    122.69000000    57.16000000    20.55000000
   H    121.70000000    55.81000000    19.81000000
   N    119.81000000    57.10000000    19.85000000
   C    118.50000000    57.66000000    19.61000000
   C    117.65000000    57.63000000    20.87000000
   O    117.66000000    56.65000000    21.61000000
   C    117.80000000    56.93000000    18.46000000
   C    118.57000000    57.08000000    17.16000000
   N    118.46000000    58.19000000    16.42000000
   O    119.37000000    56.24000000    16.75000000
   H    119.81000000    56.21000000    20.33000000
   H    118.62000000    58.65000000    19.17000000
   H    116.81000000    57.39000000    18.42000000
   H    117.55000000    55.91000000    18.76000000
   H    117.89000000    58.97000000    16.74000000
   H    118.75000000    58.22000000    15.46000000
   N    116.89000000    58.70000000    21.13000000
   C    116.21000000    58.80000000    22.41000000
   C    115.37000000    60.02000000    22.74000000
   O    115.57000000    61.09000000    22.17000000
   H    116.99000000    59.46000000    20.47000000
   H    116.90000000    58.83000000    23.25000000
   H    115.54000000    57.94000000    22.53000000
   N    114.53000000    59.88000000    23.78000000
   C    114.28000000    58.74000000    24.63000000
   C    113.32000000    57.77000000    23.96000000
   O    113.16000000    56.68000000    24.50000000
   C    113.68000000    59.34000000    25.90000000
   C    114.61000000    60.25000000    26.71000000
   O    112.48000000    60.02000000    25.62000000
   H    113.92000000    60.68000000    23.89000000
   H    115.23000000    58.25000000    24.85000000
   H    113.44000000    58.59000000    26.65000000
   H    111.95000000    59.91000000    26.41000000
   H    114.11000000    60.61000000    27.61000000
   H    115.47000000    59.65000000    27.00000000
   H    114.93000000    61.09000000    26.09000000
   N    112.72000000    58.02000000    22.80000000
   C    111.81000000    57.12000000    22.11000000
   C    110.45000000    56.99000000    22.79000000
   O    110.28000000    56.16000000    23.67000000
   C    112.36000000    55.73000000    21.83000000
   C    113.81000000    55.72000000    21.36000000
   C    111.47000000    54.98000000    20.85000000
   C    114.14000000    56.76000000    20.29000000
   H    112.66000000    58.98000000    22.48000000
   H    111.65000000    57.51000000    21.10000000
   H    112.43000000    55.15000000    22.76000000
   H    113.98000000    54.74000000    20.93000000
   H    114.44000000    55.99000000    22.21000000
   H    111.45000000    55.56000000    19.93000000
   H    111.78000000    53.94000000    20.70000000
   H    110.44000000    54.94000000    21.19000000
   H    113.59000000    56.53000000    19.38000000
   H    113.99000000    57.79000000    20.61000000
   H    115.18000000    56.63000000    20.02000000
   N    109.48000000    57.83000000    22.42000000
   C    109.49000000    58.83000000    21.37000000
   C    109.11000000    58.25000000    20.01000000
   O    109.51000000    58.80000000    18.99000000
   C    108.52000000    59.99000000    21.58000000
   C    107.15000000    59.52000000    22.04000000
   O    106.84000000    58.36000000    22.39000000
   O    106.20000000    60.32000000    22.15000000
   H    108.63000000    57.57000000    22.88000000
   H    110.51000000    59.19000000    21.28000000
   H    108.44000000    60.58000000    20.67000000
   H    109.00000000    60.64000000    22.31000000
   N    108.32000000    57.17000000    20.05000000
   C    107.98000000    56.33000000    18.92000000
   C    106.87000000    56.91000000    18.06000000
   O    106.35000000    57.96000000    18.42000000
   C    107.56000000    55.02000000    19.59000000
   C    106.25000000    54.99000000    20.33000000
   C    106.25000000    55.17000000    21.72000000
   C    105.08000000    54.60000000    19.66000000
   C    105.02000000    55.07000000    22.39000000
   C    103.85000000    54.51000000    20.32000000
   C    103.84000000    54.87000000    21.67000000
   H    107.85000000    57.11000000    20.94000000
   H    108.82000000    56.23000000    18.24000000
   H    108.37000000    54.63000000    20.21000000
   H    107.50000000    54.24000000    18.84000000
   H    107.21000000    55.21000000    22.21000000
   H    105.16000000    54.31000000    18.62000000
   H    104.93000000    55.15000000    23.46000000
   H    102.94000000    54.25000000    19.80000000
   H    102.90000000    54.80000000    22.21000000
   N    106.51000000    56.34000000    16.90000000
   C    107.29000000    55.46000000    16.06000000
   C    108.66000000    55.98000000    15.66000000
   O    108.89000000    57.18000000    15.85000000
   C    106.42000000    55.20000000    14.84000000
   C    104.99000000    55.62000000    15.16000000
   C    105.23000000    56.63000000    16.27000000
   H    107.38000000    54.47000000    16.53000000
   H    106.75000000    55.84000000    14.02000000
   H    106.47000000    54.13000000    14.60000000
   H    104.53000000    56.08000000    14.27000000
   H    104.34000000    54.82000000    15.51000000
   H    105.18000000    57.63000000    15.83000000
   H    104.42000000    56.61000000    17.00000000
   N    109.50000000    55.12000000    15.10000000
   C    110.56000000    55.46000000    14.17000000
   C    111.87000000    54.69000000    14.22000000
   O    112.74000000    54.86000000    13.37000000
   C    110.06000000    55.56000000    12.73000000
   C    109.44000000    56.89000000    12.32000000
   C    110.44000000    58.04000000    12.28000000
   O    110.05000000    59.15000000    12.71000000
   O    111.64000000    57.87000000    11.95000000
   H    109.22000000    54.15000000    15.05000000
   H    110.93000000    56.43000000    14.50000000
   H    109.30000000    54.78000000    12.67000000
   H    110.80000000    55.26000000    11.99000000
   H    108.73000000    57.12000000    13.11000000
   H    108.79000000    56.86000000    11.45000000
   N    112.14000000    53.64000000    15.01000000
   C    111.45000000    53.10000000    16.16000000
   H    110.45100000    52.77700000    15.86500000
   H    112.00600000    52.24800000    16.55100000
   H    111.37100000    53.86700000    16.93000000
   H    113.11000000    53.35000000    14.92000000
  Ca    120.57300000    54.10000000    15.89000000
   O    117.89300000    53.59000000    15.39000000
   H    117.79300000    54.08000000    14.57000000
   H    117.33300000    52.82000000    15.27000000
   O    120.28300000    52.78000000    13.64000000
   H    119.62300000    53.24000000    13.12000000
   H    120.61300000    52.10000000    13.05000000
   O    119.42300000    55.44000000    13.89000000
   H    118.65300000    55.78000000    13.43000000
   H    120.10300000    56.10000000    13.74000000
   O    119.63300000    53.74000000    18.43000000
   H    120.08300000    52.90000000    18.30000000
   H    119.48300000    53.79000000    19.37000000

Ca 1.00



