%chk=loop2.holoCaM-CaMKII.run11.water2.chk
%nprocshared=20
%mem=10GB
%nosave
#b3lyp/svp scf=(tight,noincore,xqc) Test 
#IOP(5/87=12) Density=Current Pop=(MK,readradii) iop(6/33=2) iop(6/42=6)

loop2.holoCaM-CaMKII.run11.water2 

   -2  1 
   C     72.34000000    80.61000000    25.20000000
   C     73.05000000    81.89000000    25.63000000
   O     73.61000000    81.92000000    26.72000000
   H     71.40000000    80.86400000    24.71000000
   H     72.97400000    80.05800000    24.50600000
   H     72.13700000    79.99400000    26.07600000
   N     73.01000000    82.98000000    24.87000000
   C     74.03000000    84.01000000    24.87000000
   C     73.81000000    84.99000000    26.02000000
   O     72.66000000    85.35000000    26.24000000
   C     74.10000000    84.71000000    23.52000000
   C     75.03000000    85.92000000    23.55000000
   O     76.20000000    85.72000000    23.96000000
   O     74.60000000    87.08000000    23.44000000
   H     72.61000000    82.86000000    23.95000000
   H     74.94000000    83.47000000    25.11000000
   H     73.09000000    85.03000000    23.26000000
   H     74.26000000    83.98000000    22.72000000
   N     74.88000000    85.57000000    26.58000000
   C     74.80000000    86.68000000    27.50000000
   C     75.70000000    87.88000000    27.28000000
   O     75.84000000    88.76000000    28.13000000
   C     74.75000000    86.10000000    28.91000000
   H     75.79000000    85.15000000    26.45000000
   H     73.80000000    87.11000000    27.37000000
   H     74.48000000    86.74000000    29.76000000
   H     74.00000000    85.32000000    28.96000000
   H     75.70000000    85.64000000    29.16000000
   N     76.43000000    87.93000000    26.16000000
   C     77.35000000    89.01000000    25.88000000
   C     77.27000000    89.59000000    24.47000000
   O     78.00000000    90.55000000    24.21000000
   C     78.71000000    88.38000000    26.17000000
   C     79.00000000    87.05000000    25.50000000
   O     78.89000000    87.01000000    24.25000000
   O     79.18000000    86.00000000    26.14000000
   H     76.18000000    87.32000000    25.39000000
   H     77.25000000    89.84000000    26.57000000
   H     78.75000000    88.24000000    27.25000000
   H     79.43000000    89.18000000    25.98000000
   N     76.56000000    89.01000000    23.51000000
   C     76.63000000    89.34000000    22.10000000
   C     77.81000000    88.87000000    21.25000000
   O     77.86000000    89.31000000    20.10000000
   H     75.83000000    88.35000000    23.76000000
   H     76.53000000    90.41000000    21.95000000
   H     75.75000000    88.89000000    21.66000000
   N     78.81000000    88.16000000    21.76000000
   C     80.14000000    88.13000000    21.17000000
   C     80.26000000    87.22000000    19.96000000
   O     81.33000000    87.21000000    19.36000000
   C     81.19000000    87.85000000    22.24000000
   C     81.30000000    86.39000000    22.68000000
   N     82.13000000    86.09000000    23.67000000
   O     80.50000000    85.53000000    22.31000000
   H     78.75000000    87.95000000    22.75000000
   H     80.33000000    89.16000000    20.86000000
   H     81.06000000    88.47000000    23.12000000
   H     82.15000000    88.08000000    21.79000000
   H     82.85000000    86.75000000    23.92000000
   H     82.16000000    85.13000000    24.00000000
   N     79.22000000    86.46000000    19.61000000
   C     79.15000000    85.72000000    18.36000000
   C     79.68000000    84.30000000    18.47000000
   O     79.68000000    83.52000000    17.51000000
   H     78.40000000    86.53000000    20.20000000
   H     79.70000000    86.18000000    17.54000000
   H     78.10000000    85.62000000    18.08000000
   N     79.92000000    83.91000000    19.72000000
   C     80.53000000    82.63000000    20.03000000
   C     80.02000000    82.08000000    21.35000000
   O     79.71000000    82.81000000    22.29000000
   C     82.04000000    82.72000000    20.23000000
   C     82.93000000    82.98000000    19.02000000
   O     82.26000000    83.81000000    21.10000000
   H     79.70000000    84.60000000    20.42000000
   H     80.14000000    81.94000000    19.28000000
   H     82.46000000    81.81000000    20.66000000
   H     81.62000000    83.73000000    21.81000000
   H     82.81000000    82.26000000    18.20000000
   H     82.63000000    83.88000000    18.49000000
   H     84.00000000    82.91000000    19.20000000
   N     80.00000000    80.75000000    21.47000000
   C     79.55000000    80.10000000    22.68000000
   C     80.78000000    79.95000000    23.56000000
   O     81.72000000    79.27000000    23.17000000
   C     78.94000000    78.73000000    22.42000000
   C     77.58000000    78.86000000    21.76000000
   C     78.61000000    78.10000000    23.78000000
   C     77.29000000    77.59000000    20.96000000
   H     80.42000000    80.12000000    20.80000000
   H     78.77000000    80.69000000    23.15000000
   H     79.67000000    78.14000000    21.87000000
   H     77.50000000    79.75000000    21.14000000
   H     76.71000000    78.93000000    22.42000000
   H     79.53000000    77.93000000    24.34000000
   H     77.97000000    78.76000000    24.36000000
   H     78.08000000    77.15000000    23.73000000
   H     78.03000000    77.41000000    20.18000000
   H     77.35000000    76.71000000    21.61000000
   H     76.30000000    77.63000000    20.50000000
   N     80.75000000    80.63000000    24.71000000
   C     81.71000000    80.67000000    25.80000000
   C     81.30000000    79.63000000    26.83000000
   O     80.24000000    79.01000000    26.72000000
   C     81.68000000    82.06000000    26.44000000
   C     81.80000000    83.27000000    25.54000000
   O     80.78000000    83.70000000    24.95000000
   O     82.92000000    83.83000000    25.57000000
   H     79.92000000    81.17000000    24.93000000
   H     82.71000000    80.56000000    25.38000000
   H     82.45000000    82.07000000    27.22000000
   H     80.73000000    82.12000000    26.98000000
   N     82.21000000    79.27000000    27.73000000
   C     81.96000000    78.01000000    28.40000000
   C     80.85000000    78.00000000    29.43000000
   O     80.08000000    77.04000000    29.43000000
   C     83.26000000    77.54000000    29.04000000
   C     83.17000000    76.26000000    29.84000000
   C     82.93000000    76.20000000    31.22000000
   C     83.09000000    75.05000000    29.15000000
   C     82.73000000    74.99000000    31.90000000
   C     82.86000000    73.83000000    29.80000000
   C     82.73000000    73.79000000    31.19000000
   H     83.06000000    79.79000000    27.89000000
   H     81.63000000    77.25000000    27.70000000
   H     83.66000000    78.35000000    29.66000000
   H     83.91000000    77.35000000    28.19000000
   H     82.93000000    77.05000000    31.88000000
   H     83.17000000    75.05000000    28.07000000
   H     82.55000000    75.01000000    32.97000000
   H     82.86000000    72.95000000    29.17000000
   H     82.52000000    72.89000000    31.75000000
   N     80.70000000    78.98000000    30.32000000
   C     79.51000000    78.99000000    31.14000000
   C     78.19000000    79.01000000    30.38000000
   O     77.18000000    78.53000000    30.89000000
   C     79.68000000    80.14000000    32.13000000
   C     80.73000000    81.01000000    31.45000000
   C     81.64000000    79.99000000    30.78000000
   H     79.55000000    78.16000000    31.85000000
   H     78.71000000    80.65000000    32.18000000
   H     80.06000000    79.87000000    33.12000000
   H     80.29000000    81.67000000    30.69000000
   H     81.33000000    81.62000000    32.12000000
   H     82.08000000    80.44000000    29.88000000
   H     82.32000000    79.60000000    31.53000000
   N     78.17000000    79.45000000    29.12000000
   C     76.98000000    79.36000000    28.31000000
   C     76.80000000    77.96000000    27.74000000
   O     75.68000000    77.50000000    27.51000000
   C     77.08000000    80.33000000    27.14000000
   C     77.35000000    81.80000000    27.48000000
   C     77.44000000    82.69000000    26.26000000
   O     77.20000000    83.92000000    26.33000000
   O     77.92000000    82.29000000    25.18000000
   H     79.05000000    79.66000000    28.67000000
   H     76.11000000    79.63000000    28.92000000
   H     76.11000000    80.25000000    26.65000000
   H     77.83000000    79.87000000    26.50000000
   H     78.29000000    81.91000000    28.01000000
   H     76.56000000    82.18000000    28.14000000
   N     77.90000000    77.22000000    27.59000000
   C     77.83000000    75.81000000    27.28000000
   H     77.04800000    75.64000000    26.54000000
   H     78.78800000    75.47700000    26.88000000
   H     77.60000000    75.24900000    28.18600000
   H     78.77000000    77.70000000    27.77000000
  Ca     78.45000000    84.46000000    24.02000000
   O     76.61000000    82.68000000    22.85000000
   H     75.78000000    82.35000000    22.49000000
   H     76.92000000    81.99000000    23.43000000
   O     77.55000000    85.03000000    21.52000000
   H     76.77000000    85.57000000    21.41000000
   H     77.38000000    84.26000000    20.97000000

Ca 1.00



