%chk=loop4.holoCaM.run96.water2.chk
%nprocshared=20
%mem=10GB
%nosave
#b3lyp/svp scf=(tight,noincore,xqc) Test 
#IOP(5/87=12) Density=Current Pop=(MK,readradii) iop(6/33=2) iop(6/42=6)

loop4.holoCaM.run96.water2 

   -3  1 
   C     46.11000000    43.73000000     2.88000000
   C     47.09000000    44.86000000     3.19000000
   O     46.78000000    46.03000000     2.98000000
   H     45.20400000    44.14600000     2.43900000
   H     46.56800000    43.03300000     2.17800000
   H     45.85700000    43.20500000     3.80100000
   N     48.32000000    44.51000000     3.56000000
   C     49.32000000    45.44000000     4.02000000
   C     49.91000000    45.98000000     2.72000000
   O     50.22000000    45.17000000     1.85000000
   C     50.35000000    44.76000000     4.92000000
   C     51.64000000    45.56000000     5.04000000
   O     52.73000000    44.97000000     4.84000000
   O     51.55000000    46.80000000     5.11000000
   H     48.58000000    43.53000000     3.59000000
   H     48.83000000    46.30000000     4.49000000
   H     50.53000000    43.76000000     4.53000000
   H     50.03000000    44.75000000     5.96000000
   N     50.02000000    47.29000000     2.49000000
   C     50.59000000    47.88000000     1.30000000
   C     52.05000000    48.33000000     1.34000000
   O     52.77000000    48.22000000     0.35000000
   C     49.68000000    49.02000000     0.85000000
   C     48.22000000    48.67000000     0.58000000
   C     50.20000000    49.72000000    -0.40000000
   C     47.97000000    47.33000000    -0.12000000
   H     49.86000000    47.92000000     3.27000000
   H     50.56000000    47.09000000     0.56000000
   H     49.65000000    49.79000000     1.62000000
   H     47.71000000    49.47000000     0.05000000
   H     47.66000000    48.73000000     1.51000000
   H     51.18000000    50.15000000    -0.19000000
   H     50.48000000    48.96000000    -1.14000000
   H     49.58000000    50.56000000    -0.69000000
   H     48.39000000    47.43000000    -1.12000000
   H     48.45000000    46.59000000     0.53000000
   H     46.89000000    47.18000000    -0.18000000
   N     52.54000000    48.70000000     2.53000000
   C     53.83000000    49.31000000     2.78000000
   C     54.82000000    48.34000000     3.40000000
   O     55.90000000    48.79000000     3.77000000
   C     53.64000000    50.73000000     3.31000000
   C     52.96000000    50.83000000     4.67000000
   O     52.99000000    49.82000000     5.42000000
   O     52.51000000    51.92000000     5.08000000
   H     51.91000000    48.73000000     3.32000000
   H     54.27000000    49.47000000     1.80000000
   H     53.05000000    51.26000000     2.56000000
   H     54.63000000    51.18000000     3.37000000
   N     54.59000000    47.03000000     3.32000000
   C     55.73000000    46.13000000     3.35000000
   C     56.25000000    45.96000000     4.77000000
   O     57.45000000    46.16000000     4.95000000
   H     53.66000000    46.70000000     3.08000000
   H     56.50000000    46.55000000     2.70000000
   H     55.47000000    45.16000000     2.93000000
   N     55.44000000    45.54000000     5.74000000
   C     55.79000000    45.35000000     7.13000000
   C     54.86000000    44.31000000     7.75000000
   O     55.01000000    43.89000000     8.90000000
   C     55.66000000    46.70000000     7.83000000
   C     54.26000000    47.29000000     7.89000000
   O     53.23000000    46.58000000     7.80000000
   O     54.15000000    48.53000000     7.98000000
   H     54.47000000    45.38000000     5.51000000
   H     56.81000000    45.08000000     7.40000000
   H     56.32000000    47.40000000     7.31000000
   H     55.91000000    46.52000000     8.87000000
   N     53.87000000    43.76000000     7.05000000
   C     53.08000000    42.66000000     7.55000000
   C     52.06000000    42.91000000     8.65000000
   O     51.59000000    42.00000000     9.33000000
   H     53.64000000    44.12000000     6.13000000
   H     53.72000000    41.89000000     7.97000000
   H     52.54000000    42.33000000     6.66000000
   N     51.65000000    44.16000000     8.85000000
   C     50.67000000    44.64000000     9.81000000
   C     49.89000000    45.77000000     9.16000000
   O     50.42000000    46.56000000     8.37000000
   C     51.31000000    45.13000000    11.10000000
   C     51.95000000    44.10000000    12.02000000
   C     52.32000000    44.67000000    13.38000000
   N     53.10000000    43.89000000    14.14000000
   O     51.87000000    45.71000000    13.86000000
   H     52.06000000    44.85000000     8.23000000
   H     49.95000000    43.84000000     9.98000000
   H     50.47000000    45.63000000    11.60000000
   H     51.94000000    46.00000000    10.93000000
   H     52.87000000    43.73000000    11.57000000
   H     51.39000000    43.19000000    12.24000000
   H     53.49000000    43.02000000    13.82000000
   H     53.42000000    44.38000000    14.97000000
   N     48.66000000    45.96000000     9.64000000
   C     47.69000000    46.83000000     9.01000000
   C     47.09000000    47.88000000     9.94000000
   O     46.51000000    47.60000000    10.98000000
   C     46.58000000    46.11000000     8.25000000
   C     47.03000000    45.38000000     6.99000000
   C     46.00000000    45.16000000     9.30000000
   H     48.42000000    45.43000000    10.46000000
   H     48.17000000    47.42000000     8.24000000
   H     45.76000000    46.80000000     8.04000000
   H     47.60000000    44.48000000     7.24000000
   H     46.15000000    44.94000000     6.53000000
   H     47.53000000    46.05000000     6.29000000
   H     46.69000000    44.52000000     9.84000000
   H     45.39000000    45.75000000     9.99000000
   H     45.30000000    44.54000000     8.74000000
   N     47.21000000    49.14000000     9.52000000
   C     46.72000000    50.31000000    10.24000000
   C     45.27000000    50.47000000     9.80000000
   O     44.71000000    49.65000000     9.08000000
   C     47.70000000    51.46000000    10.03000000
   C     47.60000000    52.15000000     8.68000000
   N     48.49000000    51.78000000     7.75000000
   O     46.80000000    53.06000000     8.49000000
   H     47.64000000    49.37000000     8.64000000
   H     46.65000000    50.02000000    11.29000000
   H     48.72000000    51.15000000    10.30000000
   H     47.42000000    52.23000000    10.74000000
   H     49.28000000    51.19000000     7.96000000
   H     48.51000000    52.27000000     6.87000000
   N     44.60000000    51.56000000    10.16000000
   C     43.23000000    51.84000000     9.75000000
   C     43.10000000    52.08000000     8.25000000
   O     42.12000000    51.65000000     7.64000000
   C     42.83000000    53.10000000    10.50000000
   C     41.45000000    53.61000000    10.13000000
   C     40.26000000    53.06000000    10.62000000
   C     41.32000000    54.65000000     9.20000000
   C     38.99000000    53.34000000    10.11000000
   C     40.06000000    55.01000000     8.71000000
   C     38.89000000    54.35000000     9.13000000
   O     37.68000000    54.76000000     8.66000000
   H     45.04000000    52.28000000    10.72000000
   H     42.65000000    50.94000000     9.96000000
   H     43.58000000    53.87000000    10.34000000
   H     42.84000000    52.94000000    11.58000000
   H     40.29000000    52.18000000    11.24000000
   H     42.23000000    55.18000000     8.96000000
   H     38.06000000    52.90000000    10.45000000
   H     39.89000000    55.85000000     8.06000000
   H     37.73000000    55.57000000     8.15000000
   N     44.12000000    52.71000000     7.68000000
   C     44.09000000    52.96000000     6.25000000
   C     44.25000000    51.75000000     5.34000000
   O     43.94000000    51.83000000     4.15000000
   C     45.13000000    54.02000000     5.91000000
   C     45.02000000    54.87000000     4.64000000
   C     46.25000000    55.74000000     4.44000000
   O     47.32000000    55.15000000     4.20000000
   O     46.26000000    56.97000000     4.69000000
   H     44.96000000    53.00000000     8.17000000
   H     43.15000000    53.46000000     6.00000000
   H     46.03000000    53.43000000     5.76000000
   H     45.25000000    54.70000000     6.75000000
   H     44.15000000    55.53000000     4.64000000
   H     44.88000000    54.25000000     3.76000000
   N     44.78000000    50.68000000     5.92000000
   C     44.96000000    49.39000000     5.27000000
   C     43.82000000    48.43000000     5.53000000
   O     43.45000000    47.65000000     4.65000000
   C     46.29000000    48.77000000     5.69000000
   C     47.53000000    49.41000000     5.07000000
   C     48.95000000    49.17000000     5.56000000
   O     49.08000000    48.93000000     6.78000000
   O     49.95000000    49.39000000     4.85000000
   H     44.84000000    50.79000000     6.92000000
   H     45.03000000    49.50000000     4.19000000
   H     46.35000000    47.73000000     5.36000000
   H     46.43000000    48.86000000     6.77000000
   H     47.33000000    50.49000000     5.06000000
   H     47.59000000    49.12000000     4.02000000
   N     43.14000000    48.52000000     6.68000000
   C     41.92000000    47.83000000     7.02000000
   H     41.12600000    48.14000000     6.34000000
   H     42.07300000    46.75400000     6.93200000
   H     41.63700000    48.07400000     8.04400000
   H     43.60000000    49.10000000     7.37000000
  Ca     51.57000000    48.57000000     7.12000000
   O     51.41000000    51.33000000     7.35000000
   H     51.97000000    51.45000000     6.58000000
   H     51.68000000    52.02000000     7.95000000
   O     51.36000000    49.65000000     9.64000000
   H     51.75000000    49.89000000    10.49000000
   H     51.09000000    50.49000000     9.26000000

Ca 1.00



