%chk=loop3.holoCaM-CaMKII.run71.water2.chk
%nprocshared=20
%mem=10GB
%nosave
#b3lyp/svp scf=(tight,noincore,xqc) Test 
#IOP(5/87=12) Density=Current Pop=(MK,readradii) iop(6/33=2) iop(6/42=6)

loop3.holoCaM-CaMKII.run71.water2 

   0  1 
   C     27.48000000    33.93000000    -0.71000000
   C     27.67000000    32.42000000    -0.67000000
   O     28.50000000    31.87000000    -1.39000000
   H     26.55700000    34.19300000    -0.19300000
   H     28.32200000    34.41600000    -0.21800000
   H     27.42300000    34.26200000    -1.74700000
   N     26.98000000    31.79000000     0.29000000
   C     26.83000000    30.36000000     0.39000000
   C     25.65000000    29.83000000    -0.43000000
   O     24.47000000    29.95000000    -0.11000000
   C     26.64000000    30.07000000     1.88000000
   C     26.50000000    28.57000000     2.11000000
   O     26.00000000    28.25000000     3.21000000
   O     26.74000000    27.77000000     1.18000000
   H     26.32000000    32.33000000     0.83000000
   H     27.73000000    29.90000000     0.00000000
   H     25.77000000    30.65000000     2.18000000
   H     27.51000000    30.33000000     2.48000000
   N     26.01000000    29.27000000    -1.58000000
   C     25.03000000    28.85000000    -2.56000000
   C     24.18000000    27.69000000    -2.06000000
   O     22.96000000    27.76000000    -1.96000000
   C     25.76000000    28.64000000    -3.88000000
   C     24.90000000    28.64000000    -5.14000000
   C     25.82000000    28.72000000    -6.36000000
   C     25.01000000    28.38000000    -7.60000000
   N     24.68000000    26.94000000    -7.63000000
   H     26.99000000    29.11000000    -1.73000000
   H     24.33000000    29.68000000    -2.68000000
   H     26.22000000    27.65000000    -3.91000000
   H     26.52000000    29.42000000    -3.95000000
   H     24.22000000    29.50000000    -5.11000000
   H     24.34000000    27.71000000    -5.10000000
   H     26.70000000    28.10000000    -6.18000000
   H     26.13000000    29.75000000    -6.54000000
   H     25.72000000    28.59000000    -8.40000000
   H     24.09000000    28.96000000    -7.63000000
   H     24.34000000    26.74000000    -8.55000000
   H     25.49000000    26.41000000    -7.35000000
   H     24.07000000    26.73000000    -6.85000000
   N     24.83000000    26.56000000    -1.78000000
   C     24.11000000    25.35000000    -1.45000000
   C     23.50000000    25.46000000    -0.06000000
   O     22.80000000    24.52000000     0.31000000
   C     24.95000000    24.08000000    -1.64000000
   C     25.96000000    23.83000000    -0.53000000
   O     26.43000000    22.68000000    -0.64000000
   O     26.43000000    24.69000000     0.25000000
   H     25.83000000    26.64000000    -1.91000000
   H     23.32000000    25.23000000    -2.19000000
   H     25.49000000    24.13000000    -2.58000000
   H     24.26000000    23.24000000    -1.70000000
   N     23.81000000    26.40000000     0.83000000
   C     23.26000000    26.53000000     2.17000000
   C     23.94000000    25.71000000     3.25000000
   O     23.31000000    25.51000000     4.29000000
   H     24.48000000    27.09000000     0.53000000
   H     22.27000000    26.08000000     2.09000000
   H     23.21000000    27.59000000     2.40000000
   N     25.14000000    25.14000000     3.10000000
   C     25.69000000    24.13000000     3.98000000
   C     26.48000000    24.69000000     5.15000000
   O     27.11000000    23.93000000     5.90000000
   C     26.47000000    23.11000000     3.16000000
   C     27.90000000    23.44000000     2.79000000
   N     28.82000000    22.47000000     2.73000000
   O     28.21000000    24.63000000     2.70000000
   H     25.65000000    25.30000000     2.24000000
   H     24.84000000    23.68000000     4.49000000
   H     25.98000000    22.85000000     2.22000000
   H     26.48000000    22.14000000     3.68000000
   H     28.60000000    21.50000000     2.93000000
   H     29.79000000    22.72000000     2.62000000
   N     26.56000000    25.99000000     5.43000000
   C     27.25000000    26.67000000     6.51000000
   C     28.63000000    27.22000000     6.20000000
   O     29.30000000    27.68000000     7.12000000
   H     26.00000000    26.62000000     4.88000000
   H     27.41000000    25.87000000     7.23000000
   H     26.59000000    27.41000000     6.97000000
   N     28.93000000    27.27000000     4.90000000
   C     30.28000000    27.60000000     4.47000000
   C     30.32000000    28.24000000     3.08000000
   O     29.42000000    28.14000000     2.26000000
   C     31.15000000    26.36000000     4.32000000
   C     31.19000000    25.52000000     5.57000000
   C     31.92000000    25.86000000     6.72000000
   C     30.35000000    24.40000000     5.63000000
   C     31.87000000    25.05000000     7.86000000
   C     30.24000000    23.64000000     6.79000000
   C     31.04000000    23.91000000     7.92000000
   O     30.88000000    23.26000000     9.10000000
   H     28.34000000    26.87000000     4.19000000
   H     30.71000000    28.36000000     5.12000000
   H     32.17000000    26.70000000     4.13000000
   H     30.78000000    25.83000000     3.44000000
   H     32.61000000    26.70000000     6.71000000
   H     29.64000000    24.19000000     4.85000000
   H     32.45000000    25.33000000     8.72000000
   H     29.45000000    22.91000000     6.87000000
   H     31.58000000    23.39000000     9.74000000
   N     31.52000000    28.77000000     2.83000000
   C     31.72000000    29.45000000     1.56000000
   C     33.08000000    29.03000000     1.02000000
   O     34.13000000    29.22000000     1.62000000
   C     31.63000000    30.97000000     1.55000000
   C     30.50000000    31.62000000     2.34000000
   C     31.51000000    31.33000000     0.07000000
   C     30.51000000    33.13000000     2.55000000
   H     32.23000000    28.85000000     3.53000000
   H     30.93000000    29.16000000     0.87000000
   H     32.52000000    31.43000000     1.99000000
   H     30.56000000    31.25000000     3.36000000
   H     29.59000000    31.33000000     1.82000000
   H     31.29000000    32.39000000    -0.09000000
   H     32.37000000    31.18000000    -0.58000000
   H     30.67000000    30.80000000    -0.38000000
   H     31.13000000    33.44000000     3.39000000
   H     30.87000000    33.73000000     1.72000000
   H     29.46000000    33.42000000     2.69000000
   N     33.00000000    28.48000000    -0.20000000
   C     34.13000000    28.08000000    -1.02000000
   C     34.58000000    29.07000000    -2.09000000
   O     33.91000000    30.03000000    -2.45000000
   C     33.83000000    26.69000000    -1.58000000
   O     32.64000000    26.76000000    -2.33000000
   H     32.08000000    28.43000000    -0.60000000
   H     34.98000000    27.96000000    -0.36000000
   H     33.77000000    26.00000000    -0.74000000
   H     34.68000000    26.45000000    -2.21000000
   H     32.36000000    25.88000000    -2.59000000
   N     35.82000000    28.93000000    -2.57000000
   C     36.26000000    29.52000000    -3.83000000
   C     35.28000000    29.40000000    -4.98000000
   O     35.14000000    30.48000000    -5.56000000
   C     37.69000000    29.10000000    -4.19000000
   H     36.35000000    28.22000000    -2.10000000
   H     36.35000000    30.58000000    -3.59000000
   H     38.35000000    29.48000000    -3.42000000
   H     37.84000000    28.02000000    -4.16000000
   H     37.91000000    29.48000000    -5.19000000
   N     34.56000000    28.31000000    -5.25000000
   C     33.68000000    28.14000000    -6.40000000
   C     32.41000000    28.97000000    -6.25000000
   O     31.89000000    29.61000000    -7.16000000
   C     33.39000000    26.67000000    -6.67000000
   H     34.69000000    27.44000000    -4.75000000
   H     34.24000000    28.44000000    -7.28000000
   H     32.75000000    26.62000000    -7.55000000
   H     34.28000000    26.13000000    -6.98000000
   H     32.93000000    26.10000000    -5.87000000
   N     31.94000000    28.99000000    -5.00000000
   C     30.76000000    29.75000000    -4.66000000
   C     30.94000000    31.25000000    -4.49000000
   O     30.14000000    32.08000000    -4.93000000
   C     30.15000000    29.27000000    -3.35000000
   C     29.35000000    27.97000000    -3.47000000
   C     28.96000000    27.50000000    -2.08000000
   O     29.69000000    27.64000000    -1.07000000
   O     27.92000000    26.84000000    -1.84000000
   H     32.25000000    28.30000000    -4.33000000
   H     30.05000000    29.50000000    -5.45000000
   H     29.44000000    30.03000000    -3.02000000
   H     30.86000000    29.24000000    -2.52000000
   H     29.97000000    27.21000000    -3.94000000
   H     28.45000000    28.21000000    -4.05000000
   N     32.08000000    31.66000000    -3.93000000
   C     32.51000000    33.04000000    -3.79000000
   H     33.45900000    33.17900000    -4.30900000
   H     31.75900000    33.70100000    -4.22400000
   H     32.63600000    33.27600000    -2.73300000
   H     32.75000000    30.95000000    -3.67000000
  Ca     28.52000000    26.08000000     0.65000000
   O     31.25000000    26.02000000     0.42000000
   H     32.03000000    25.57000000     0.74000000
   H     31.49000000    26.33000000    -0.46000000
   O     29.43000000    23.93000000    -0.71400000
   H     28.91000000    23.16000000    -0.94400000
   H     30.34000000    23.65000000    -0.81400000

Ca 1.00



