%chk=loop1.holoCaM.run26.water2.chk
%nprocshared=20
%mem=10GB
%nosave
#b3lyp/svp scf=(tight,noincore,xqc) Test 
#IOP(5/87=12) Density=Current Pop=(MK,readradii) iop(6/33=2) iop(6/42=6)

loop1.holoCaM.run26.water2 

   0  1 
   C     56.48000000    71.71000000     8.13000000
   C     54.97000000    71.84000000     7.92000000
   O     54.51000000    72.39000000     6.92000000
   H     56.96000000    72.66500000     7.91600000
   H     56.68100000    71.42700000     9.16300000
   H     56.87600000    70.94700000     7.46000000
   N     54.15000000    71.37000000     8.86000000
   C     52.73000000    71.66000000     8.96000000
   C     52.47000000    73.08000000     9.44000000
   O     52.31000000    73.27000000    10.64000000
   C     52.16000000    70.62000000     9.92000000
   C     50.71000000    70.79000000    10.34000000
   O     50.27000000    70.09000000    11.28000000
   O     49.95000000    71.55000000     9.71000000
   H     54.51000000    70.77000000     9.59000000
   H     52.19000000    71.45000000     8.04000000
   H     52.82000000    70.51000000    10.78000000
   H     52.32000000    69.65000000     9.44000000
   N     52.49000000    74.05000000     8.53000000
   C     52.53000000    75.49000000     8.71000000
   C     51.27000000    76.15000000     9.27000000
   O     51.26000000    77.27000000     9.76000000
   C     52.96000000    76.15000000     7.41000000
   C     53.51000000    77.56000000     7.66000000
   C     54.68000000    77.94000000     6.76000000
   C     55.13000000    79.38000000     7.00000000
   N     55.53000000    79.66000000     8.38000000
   H     52.49000000    73.68000000     7.59000000
   H     53.20000000    75.78000000     9.51000000
   H     52.29000000    76.18000000     6.55000000
   H     53.83000000    75.62000000     7.01000000
   H     53.79000000    77.72000000     8.70000000
   H     52.77000000    78.31000000     7.40000000
   H     54.45000000    77.93000000     5.69000000
   H     55.48000000    77.27000000     7.08000000
   H     54.28000000    80.03000000     6.78000000
   H     55.98000000    79.63000000     6.37000000
   H     55.84000000    80.62000000     8.47000000
   H     54.70000000    79.77000000     8.94000000
   H     56.22000000    79.01000000     8.74000000
   N     50.16000000    75.41000000     9.29000000
   C     48.85000000    75.89000000     9.68000000
   C     48.19000000    74.97000000    10.70000000
   O     47.15000000    75.30000000    11.27000000
   C     47.94000000    76.11000000     8.48000000
   C     47.71000000    74.91000000     7.57000000
   O     47.44000000    75.14000000     6.38000000
   O     47.86000000    73.75000000     8.03000000
   H     50.17000000    74.49000000     8.87000000
   H     49.06000000    76.85000000    10.15000000
   H     48.45000000    76.86000000     7.87000000
   H     47.00000000    76.55000000     8.80000000
   N     48.92000000    73.95000000    11.15000000
   C     48.59000000    73.23000000    12.36000000
   C     47.31000000    72.41000000    12.36000000
   O     46.44000000    72.68000000    13.18000000
   H     49.73000000    73.67000000    10.62000000
   H     48.64000000    73.87000000    13.24000000
   H     49.39000000    72.51000000    12.53000000
   N     47.21000000    71.51000000    11.37000000
   C     46.16000000    70.52000000    11.33000000
   C     46.63000000    69.11000000    11.68000000
   O     45.82000000    68.20000000    11.83000000
   C     45.49000000    70.48000000     9.96000000
   C     46.43000000    70.39000000     8.76000000
   O     46.32000000    71.20000000     7.81000000
   O     47.48000000    69.72000000     8.76000000
   H     47.96000000    71.40000000    10.71000000
   H     45.41000000    70.80000000    12.07000000
   H     45.00000000    71.45000000     9.83000000
   H     44.71000000    69.72000000     9.94000000
   N     47.91000000    68.79000000    11.87000000
   C     48.53000000    67.54000000    12.25000000
   C     48.97000000    66.79000000    11.00000000
   O     49.39000000    65.64000000    11.11000000
   H     48.61000000    69.52000000    11.82000000
   H     47.93000000    66.86000000    12.85000000
   H     49.47000000    67.84000000    12.72000000
   N     48.80000000    67.40000000     9.82000000
   C     49.18000000    66.88000000     8.53000000
   C     50.05000000    67.73000000     7.61000000
   O     50.05000000    68.96000000     7.56000000
   C     47.96000000    66.47000000     7.71000000
   C     47.24000000    65.35000000     8.44000000
   O     46.97000000    67.46000000     7.54000000
   H     48.53000000    68.38000000     9.80000000
   H     49.70000000    65.95000000     8.74000000
   H     48.29000000    66.17000000     6.71000000
   H     47.33000000    68.20000000     8.04000000
   H     47.91000000    64.50000000     8.61000000
   H     46.86000000    65.68000000     9.40000000
   H     46.41000000    64.99000000     7.85000000
   N     50.81000000    67.03000000     6.77000000
   C     51.54000000    67.66000000     5.69000000
   C     50.93000000    67.40000000     4.32000000
   O     50.61000000    66.27000000     3.96000000
   C     53.02000000    67.32000000     5.75000000
   C     53.69000000    67.79000000     7.04000000
   C     53.92000000    67.76000000     4.60000000
   C     55.00000000    67.08000000     7.36000000
   H     50.76000000    66.02000000     6.78000000
   H     51.58000000    68.74000000     5.84000000
   H     53.02000000    66.23000000     5.75000000
   H     53.03000000    67.64000000     7.90000000
   H     53.88000000    68.86000000     6.97000000
   H     53.57000000    67.33000000     3.66000000
   H     54.03000000    68.85000000     4.58000000
   H     54.91000000    67.35000000     4.73000000
   H     55.17000000    67.50000000     8.35000000
   H     54.88000000    66.00000000     7.42000000
   H     55.82000000    67.35000000     6.70000000
   N     50.61000000    68.50000000     3.64000000
   C     49.92000000    68.65000000     2.37000000
   C     50.80000000    69.06000000     1.20000000
   O     51.94000000    69.45000000     1.41000000
   C     48.73000000    69.59000000     2.49000000
   C     48.87000000    71.11000000     2.47000000
   O     47.89000000    69.31000000     1.38000000
   H     51.06000000    69.36000000     3.91000000
   H     49.57000000    67.63000000     2.16000000
   H     48.20000000    69.35000000     3.41000000
   H     47.11000000    68.86000000     1.70000000
   H     47.87000000    71.54000000     2.44000000
   H     49.38000000    71.46000000     3.37000000
   H     49.30000000    71.36000000     1.50000000
   N     50.23000000    69.19000000     0.00000000
   C     51.00000000    69.58000000    -1.17000000
   C     51.53000000    71.01000000    -1.20000000
   O     52.47000000    71.36000000    -1.91000000
   C     50.13000000    69.49000000    -2.42000000
   C     49.64000000    68.09000000    -2.81000000
   O     49.00000000    70.30000000    -2.19000000
   H     49.25000000    68.94000000    -0.07000000
   H     51.75000000    68.83000000    -1.42000000
   H     50.74000000    69.84000000    -3.25000000
   H     48.67000000    70.58000000    -3.05000000
   H     50.50000000    67.45000000    -3.01000000
   H     48.92000000    67.70000000    -2.09000000
   H     49.04000000    68.24000000    -3.71000000
   N     50.99000000    71.94000000    -0.42000000
   C     51.54000000    73.25000000    -0.14000000
   C     52.60000000    73.33000000     0.95000000
   O     53.11000000    74.38000000     1.35000000
   C     50.46000000    74.25000000     0.25000000
   C     49.30000000    74.46000000    -0.72000000
   C     49.69000000    74.92000000    -2.12000000
   C     48.58000000    75.28000000    -3.11000000
   N     49.16000000    76.07000000    -4.21000000
   H     50.25000000    71.57000000     0.15000000
   H     52.01000000    73.55000000    -1.08000000
   H     50.90000000    75.24000000     0.32000000
   H     50.07000000    74.15000000     1.27000000
   H     48.65000000    75.21000000    -0.27000000
   H     48.79000000    73.50000000    -0.75000000
   H     50.24000000    74.09000000    -2.58000000
   H     50.28000000    75.82000000    -2.00000000
   H     47.93000000    75.93000000    -2.52000000
   H     48.07000000    74.38000000    -3.44000000
   H     49.78000000    75.48000000    -4.75000000
   H     48.37000000    76.30000000    -4.80000000
   H     49.62000000    76.90000000    -3.88000000
   N     52.91000000    72.18000000     1.56000000
   C     53.87000000    72.08000000     2.65000000
   C     54.97000000    71.09000000     2.34000000
   O     56.11000000    71.23000000     2.80000000
   C     53.05000000    71.70000000     3.88000000
   C     51.95000000    72.66000000     4.31000000
   C     51.14000000    72.19000000     5.51000000
   O     50.60000000    71.06000000     5.47000000
   O     50.85000000    72.97000000     6.44000000
   H     52.22000000    71.47000000     1.41000000
   H     54.28000000    73.08000000     2.83000000
   H     53.84000000    71.82000000     4.62000000
   H     52.68000000    70.69000000     3.71000000
   H     51.20000000    72.79000000     3.53000000
   H     52.38000000    73.63000000     4.57000000
   N     54.73000000    70.08000000     1.50000000
   C     55.77000000    69.13000000     1.18000000
   H     56.66000000    69.35400000     1.76900000
   H     55.42600000    68.12200000     1.41200000
   H     56.01100000    69.19800000     0.11900000
   H     53.77000000    70.03000000     1.17000000
  Ca     48.85000000    71.46000000     7.39000000
   O     47.52000000    72.77000000     5.29000000
   H     47.35000000    73.55000000     5.82000000
   H     46.78000000    72.74000000     4.67000000
   O     47.60000000    69.62000000     5.73000000
   H     47.09000000    69.25000000     6.44000000
   H     46.95000000    69.95000000     5.11000000

Ca 1.00



