%chk=loop3.holoCaM-CaMKII.run24.water2.chk
%nprocshared=20
%mem=10GB
%nosave
#b3lyp/svp scf=(tight,noincore,xqc) Test 
#IOP(5/87=12) Density=Current Pop=(MK,readradii) iop(6/33=2) iop(6/42=6)

loop3.holoCaM-CaMKII.run24.water2 

   0  1 
   C     70.96000000    48.83000000    34.99000000
   C     70.28000000    48.16000000    36.18000000
   O     70.92000000    47.25000000    36.70000000
   H     71.96500000    48.42500000    34.87100000
   H     70.38300000    48.63800000    34.08600000
   H     71.02000000    49.90500000    35.16300000
   N     69.10000000    48.54000000    36.67000000
   C     68.42000000    47.89000000    37.77000000
   C     67.51000000    46.90000000    37.06000000
   O     66.65000000    47.33000000    36.29000000
   C     67.66000000    48.98000000    38.52000000
   C     66.53000000    48.55000000    39.45000000
   O     66.45000000    47.34000000    39.76000000
   O     65.83000000    49.44000000    39.97000000
   H     68.64000000    49.34000000    36.27000000
   H     69.13000000    47.38000000    38.42000000
   H     67.19000000    49.64000000    37.80000000
   H     68.43000000    49.48000000    39.11000000
   N     67.64000000    45.58000000    37.24000000
   C     66.92000000    44.60000000    36.45000000
   C     65.52000000    44.31000000    36.96000000
   O     64.73000000    43.73000000    36.22000000
   C     67.73000000    43.32000000    36.62000000
   C     67.82000000    42.41000000    35.40000000
   C     68.31000000    40.99000000    35.68000000
   C     69.72000000    40.83000000    36.23000000
   N     70.14000000    39.45000000    36.51000000
   H     68.31000000    45.29000000    37.94000000
   H     66.90000000    44.96000000    35.42000000
   H     67.42000000    42.79000000    37.52000000
   H     68.79000000    43.53000000    36.78000000
   H     68.62000000    42.91000000    34.85000000
   H     66.94000000    42.29000000    34.77000000
   H     68.29000000    40.49000000    34.71000000
   H     67.63000000    40.52000000    36.39000000
   H     69.75000000    41.51000000    37.08000000
   H     70.37000000    41.23000000    35.45000000
   H     70.22000000    38.91000000    35.66000000
   H     70.97000000    39.30000000    37.07000000
   H     69.46000000    38.96000000    37.08000000
   N     65.23000000    44.53000000    38.25000000
   C     63.93000000    44.32000000    38.86000000
   C     63.14000000    45.58000000    39.16000000
   O     61.98000000    45.41000000    39.52000000
   C     64.17000000    43.54000000    40.14000000
   C     65.26000000    44.09000000    41.05000000
   O     66.45000000    43.72000000    40.96000000
   O     65.06000000    45.07000000    41.81000000
   H     65.91000000    44.99000000    38.82000000
   H     63.35000000    43.71000000    38.16000000
   H     64.42000000    42.49000000    39.97000000
   H     63.32000000    43.49000000    40.82000000
   N     63.70000000    46.79000000    39.12000000
   C     62.97000000    48.04000000    39.20000000
   C     62.62000000    48.66000000    40.55000000
   O     61.58000000    49.29000000    40.73000000
   H     64.70000000    46.75000000    38.93000000
   H     62.04000000    47.90000000    38.66000000
   H     63.53000000    48.78000000    38.63000000
   N     63.48000000    48.40000000    41.53000000
   C     63.27000000    48.73000000    42.93000000
   C     64.02000000    50.02000000    43.25000000
   O     63.90000000    50.55000000    44.35000000
   C     63.82000000    47.65000000    43.86000000
   C     65.33000000    47.51000000    43.98000000
   N     65.83000000    47.12000000    45.15000000
   O     66.05000000    47.85000000    43.05000000
   H     64.24000000    47.80000000    41.25000000
   H     62.20000000    48.89000000    43.07000000
   H     63.35000000    46.69000000    43.63000000
   H     63.47000000    47.92000000    44.85000000
   H     65.15000000    47.05000000    45.90000000
   H     66.83000000    46.99000000    45.25000000
   N     64.79000000    50.59000000    42.32000000
   C     65.42000000    51.89000000    42.34000000
   C     66.92000000    51.84000000    42.62000000
   O     67.50000000    52.85000000    43.01000000
   H     64.77000000    50.17000000    41.40000000
   H     64.95000000    52.52000000    43.10000000
   H     65.23000000    52.41000000    41.40000000
   N     67.51000000    50.65000000    42.51000000
   C     68.82000000    50.24000000    42.98000000
   C     69.55000000    49.31000000    42.03000000
   O     68.95000000    48.47000000    41.37000000
   C     68.83000000    49.75000000    44.43000000
   C     68.24000000    50.67000000    45.47000000
   C     69.02000000    51.54000000    46.25000000
   C     66.88000000    50.50000000    45.74000000
   C     68.37000000    52.24000000    47.27000000
   C     66.20000000    51.24000000    46.72000000
   C     66.97000000    52.17000000    47.45000000
   O     66.41000000    52.78000000    48.54000000
   H     66.93000000    49.90000000    42.16000000
   H     69.43000000    51.14000000    43.04000000
   H     69.87000000    49.61000000    44.72000000
   H     68.28000000    48.81000000    44.47000000
   H     70.08000000    51.66000000    46.12000000
   H     66.40000000    49.70000000    45.20000000
   H     68.97000000    52.81000000    47.96000000
   H     65.17000000    51.05000000    46.98000000
   H     65.49000000    52.86000000    48.29000000
   N     70.89000000    49.35000000    42.04000000
   C     71.71000000    48.59000000    41.13000000
   C     72.69000000    47.84000000    42.01000000
   O     73.46000000    48.52000000    42.69000000
   C     72.40000000    49.48000000    40.10000000
   C     71.37000000    50.26000000    39.30000000
   C     73.41000000    48.74000000    39.22000000
   C     72.02000000    51.46000000    38.61000000
   H     71.32000000    49.97000000    42.71000000
   H     71.18000000    47.80000000    40.59000000
   H     73.05000000    50.20000000    40.60000000
   H     70.64000000    50.65000000    40.01000000
   H     70.89000000    49.64000000    38.54000000
   H     72.88000000    48.05000000    38.57000000
   H     74.09000000    49.39000000    38.67000000
   H     74.04000000    48.12000000    39.86000000
   H     72.28000000    52.22000000    39.35000000
   H     72.83000000    51.17000000    37.94000000
   H     71.27000000    51.93000000    37.97000000
   N     72.80000000    46.51000000    41.91000000
   C     73.80000000    45.72000000    42.60000000
   C     75.00000000    45.45000000    41.70000000
   O     74.93000000    45.68000000    40.50000000
   C     73.26000000    44.38000000    43.07000000
   O     73.25000000    43.38000000    42.07000000
   H     72.23000000    46.14000000    41.16000000
   H     74.06000000    46.30000000    43.49000000
   H     72.30000000    44.59000000    43.55000000
   H     73.96000000    44.04000000    43.83000000
   H     72.74000000    42.65000000    42.42000000
   N     76.05000000    44.81000000    42.23000000
   C     77.17000000    44.44000000    41.39000000
   C     76.81000000    43.36000000    40.39000000
   O     77.34000000    43.42000000    39.28000000
   C     78.35000000    44.03000000    42.26000000
   H     76.09000000    44.71000000    43.23000000
   H     77.50000000    45.33000000    40.85000000
   H     78.26000000    43.19000000    42.95000000
   H     79.25000000    43.74000000    41.72000000
   H     78.68000000    44.91000000    42.82000000
   N     75.94000000    42.41000000    40.72000000
   C     75.37000000    41.37000000    39.88000000
   C     74.53000000    41.99000000    38.77000000
   O     74.52000000    41.56000000    37.62000000
   C     74.58000000    40.44000000    40.79000000
   H     75.59000000    42.49000000    41.66000000
   H     76.20000000    40.80000000    39.46000000
   H     73.65000000    40.89000000    41.12000000
   H     74.31000000    39.54000000    40.23000000
   H     75.19000000    40.21000000    41.67000000
   N     73.86000000    43.10000000    39.09000000
   C     72.99000000    43.79000000    38.16000000
   C     73.82000000    44.66000000    37.22000000
   O     73.66000000    44.62000000    36.00000000
   C     71.91000000    44.59000000    38.88000000
   C     70.81000000    43.74000000    39.51000000
   C     69.87000000    44.60000000    40.34000000
   O     68.96000000    45.22000000    39.75000000
   O     69.92000000    44.63000000    41.59000000
   H     73.95000000    43.55000000    39.99000000
   H     72.40000000    43.07000000    37.58000000
   H     71.42000000    45.09000000    38.05000000
   H     72.43000000    45.27000000    39.56000000
   H     71.34000000    43.11000000    40.22000000
   H     70.24000000    43.10000000    38.83000000
   N     74.83000000    45.32000000    37.78000000
   C     75.76000000    46.09000000    36.98000000
   H     76.70400000    45.55000000    36.90100000
   H     75.34400000    46.24200000    35.98400000
   H     75.93300000    47.05700000    37.45300000
   H     75.02000000    45.34000000    38.77000000
  Ca     67.52000000    46.18000000    41.70000000
   O     69.63000000    46.37000000    43.30000000
   H     70.03000000    45.72000000    42.73000000
   H     69.92000000    46.15000000    44.18000000
   O     67.46000000    44.67000000    44.02000000
   H     67.70000000    44.86000000    44.93000000
   H     67.02000000    43.82000000    44.07000000

Ca 1.00



