%chk=loop3.holoCaM.run21.water2.chk
%nprocshared=20
%mem=10GB
%nosave
#b3lyp/svp scf=(tight,noincore,xqc) Test 
#IOP(5/87=12) Density=Current Pop=(MK,readradii) iop(6/33=2) iop(6/42=6)

loop3.holoCaM.run21.water2 

   0  1 
   C     89.47000000    37.42000000    24.81000000
   C     90.53000000    37.00000000    23.79000000
   O     91.15000000    35.95000000    23.96000000
   H     88.54400000    36.87800000    24.61500000
   H     89.82100000    37.18900000    25.81600000
   H     89.28800000    38.49100000    24.72500000
   N     90.76000000    37.80000000    22.75000000
   C     91.87000000    37.69000000    21.83000000
   C     93.13000000    38.17000000    22.54000000
   O     93.45000000    39.35000000    22.40000000
   C     91.52000000    38.42000000    20.54000000
   C     92.69000000    38.53000000    19.57000000
   O     93.58000000    37.65000000    19.52000000
   O     92.62000000    39.48000000    18.76000000
   H     90.08000000    38.54000000    22.62000000
   H     92.01000000    36.62000000    21.64000000
   H     91.12000000    39.42000000    20.66000000
   H     90.74000000    37.88000000    20.01000000
   N     93.72000000    37.33000000    23.38000000
   C     94.55000000    37.80000000    24.47000000
   C     96.00000000    38.09000000    24.08000000
   O     96.80000000    38.51000000    24.92000000
   C     94.53000000    36.89000000    25.69000000
   C     93.26000000    36.78000000    26.52000000
   C     93.01000000    38.12000000    27.20000000
   C     91.98000000    37.86000000    28.30000000
   N     91.83000000    38.96000000    29.26000000
   H     93.35000000    36.39000000    23.49000000
   H     94.23000000    38.80000000    24.78000000
   H     95.24000000    37.13000000    26.48000000
   H     94.76000000    35.86000000    25.39000000
   H     93.53000000    35.91000000    27.13000000
   H     92.47000000    36.50000000    25.82000000
   H     92.64000000    38.76000000    26.39000000
   H     93.93000000    38.44000000    27.69000000
   H     92.39000000    37.04000000    28.89000000
   H     91.01000000    37.73000000    27.82000000
   H     92.65000000    39.05000000    29.83000000
   H     91.62000000    39.87000000    28.88000000
   H     91.13000000    38.70000000    29.94000000
   N     96.36000000    37.80000000    22.83000000
   C     97.54000000    38.28000000    22.14000000
   C     97.22000000    39.26000000    21.02000000
   O     98.12000000    39.64000000    20.28000000
   C     98.43000000    37.12000000    21.68000000
   C     97.70000000    35.98000000    20.98000000
   O     96.68000000    36.13000000    20.28000000
   O     97.95000000    34.81000000    21.36000000
   H     95.67000000    37.39000000    22.21000000
   H     98.10000000    38.87000000    22.86000000
   H     99.00000000    36.75000000    22.53000000
   H     99.19000000    37.52000000    21.02000000
   N     95.94000000    39.57000000    20.84000000
   C     95.45000000    40.67000000    20.03000000
   C     95.84000000    40.54000000    18.56000000
   O     96.28000000    41.49000000    17.93000000
   H     95.19000000    39.32000000    21.48000000
   H     95.78000000    41.65000000    20.36000000
   H     94.37000000    40.74000000    20.10000000
   N     95.60000000    39.38000000    17.96000000
   C     95.95000000    39.18000000    16.56000000
   C     94.71000000    39.16000000    15.67000000
   O     94.84000000    39.09000000    14.45000000
   C     96.90000000    38.02000000    16.32000000
   C     96.33000000    36.62000000    16.45000000
   N     97.10000000    35.73000000    15.83000000
   O     95.26000000    36.28000000    16.94000000
   H     95.11000000    38.62000000    18.41000000
   H     96.44000000    40.08000000    16.18000000
   H     97.84000000    38.16000000    16.86000000
   H     97.18000000    38.16000000    15.27000000
   H     97.88000000    36.12000000    15.31000000
   H     96.78000000    34.77000000    15.74000000
   N     93.50000000    39.20000000    16.23000000
   C     92.26000000    39.27000000    15.49000000
   C     91.83000000    37.92000000    14.94000000
   O     91.10000000    37.88000000    13.95000000
   H     93.47000000    39.34000000    17.23000000
   H     92.18000000    40.04000000    14.72000000
   H     91.47000000    39.41000000    16.23000000
   N     92.21000000    36.83000000    15.62000000
   C     91.71000000    35.47000000    15.52000000
   C     91.65000000    34.77000000    16.87000000
   O     92.57000000    34.91000000    17.67000000
   C     92.60000000    34.58000000    14.66000000
   C     92.83000000    35.11000000    13.27000000
   C     94.11000000    35.57000000    12.93000000
   C     91.89000000    35.09000000    12.24000000
   C     94.39000000    36.04000000    11.64000000
   C     92.16000000    35.65000000    10.98000000
   C     93.42000000    36.15000000    10.62000000
   O     93.64000000    36.75000000     9.41000000
   H     92.71000000    37.02000000    16.48000000
   H     90.69000000    35.35000000    15.16000000
   H     92.11000000    33.61000000    14.67000000
   H     93.50000000    34.37000000    15.24000000
   H     94.97000000    35.56000000    13.57000000
   H     90.89000000    34.77000000    12.48000000
   H     95.39000000    36.35000000    11.38000000
   H     91.40000000    35.56000000    10.22000000
   H     92.79000000    36.91000000     9.02000000
   N     90.75000000    33.81000000    17.10000000
   C     90.59000000    33.06000000    18.33000000
   C     90.91000000    31.59000000    18.09000000
   O     90.73000000    31.12000000    16.97000000
   C     89.21000000    33.27000000    18.94000000
   C     88.92000000    34.70000000    19.39000000
   C     88.92000000    32.37000000    20.14000000
   C     89.77000000    35.30000000    20.50000000
   H     90.18000000    33.57000000    16.30000000
   H     91.24000000    33.37000000    19.15000000
   H     88.47000000    32.91000000    18.22000000
   H     87.90000000    34.70000000    19.79000000
   H     88.88000000    35.36000000    18.52000000
   H     88.68000000    31.39000000    19.73000000
   H     89.79000000    32.33000000    20.80000000
   H     88.04000000    32.77000000    20.64000000
   H     90.81000000    35.41000000    20.20000000
   H     89.37000000    36.25000000    20.87000000
   H     89.74000000    34.56000000    21.30000000
   N     91.44000000    30.98000000    19.15000000
   C     92.19000000    29.74000000    19.17000000
   C     91.61000000    28.90000000    20.30000000
   O     90.75000000    29.31000000    21.07000000
   C     93.65000000    30.10000000    19.47000000
   O     93.92000000    30.75000000    20.69000000
   H     91.54000000    31.54000000    19.99000000
   H     92.06000000    29.17000000    18.25000000
   H     93.99000000    30.73000000    18.65000000
   H     94.34000000    29.29000000    19.23000000
   H     93.87000000    31.70000000    20.59000000
   N     92.14000000    27.67000000    20.36000000
   C     91.62000000    26.74000000    21.33000000
   C     91.97000000    27.08000000    22.77000000
   O     91.07000000    26.92000000    23.59000000
   C     92.15000000    25.38000000    20.88000000
   H     92.87000000    27.46000000    19.70000000
   H     90.53000000    26.73000000    21.28000000
   H     91.58000000    24.63000000    21.41000000
   H     92.04000000    25.24000000    19.81000000
   H     93.16000000    25.40000000    21.31000000
   N     93.08000000    27.76000000    23.07000000
   C     93.38000000    28.22000000    24.41000000
   C     92.68000000    29.50000000    24.83000000
   O     92.45000000    29.78000000    26.01000000
   C     94.89000000    28.30000000    24.58000000
   H     93.69000000    28.05000000    22.32000000
   H     92.89000000    27.51000000    25.08000000
   H     95.12000000    28.36000000    25.65000000
   H     95.31000000    27.37000000    24.19000000
   H     95.28000000    29.23000000    24.16000000
   N     92.24000000    30.29000000    23.85000000
   C     91.44000000    31.47000000    24.08000000
   C     89.95000000    31.20000000    24.12000000
   O     89.26000000    31.92000000    24.85000000
   C     91.67000000    32.51000000    22.99000000
   C     93.06000000    33.12000000    23.06000000
   C     93.41000000    33.88000000    21.78000000
   O     94.21000000    34.84000000    21.75000000
   O     93.00000000    33.50000000    20.67000000
   H     92.49000000    30.10000000    22.89000000
   H     91.69000000    31.98000000    25.01000000
   H     90.83000000    33.22000000    22.95000000
   H     91.64000000    31.93000000    22.07000000
   H     93.78000000    32.41000000    23.45000000
   H     93.04000000    33.82000000    23.90000000
   N     89.44000000    30.16000000    23.46000000
   C     88.05000000    29.79000000    23.68000000
   H     87.42900000    30.23400000    22.90200000
   H     87.95300000    28.70500000    23.64700000
   H     87.72600000    30.15500000    24.65500000
   H     90.04000000    29.60000000    22.87000000
  Ca     94.50000000    35.16000000    19.28000000
   O     96.42000000    33.06000000    19.75000000
   H     97.16000000    33.38000000    20.27000000
   H     96.46000000    32.11000000    19.82000000
   O     94.99000000    33.32000000    17.44000000
   H     95.86000000    32.97000000    17.59000000
   H     94.75000000    33.00000000    16.57000000

Ca 1.00



