%chk=loop3.holoCaM.run77.water2.chk
%nprocshared=20
%mem=10GB
%nosave
#b3lyp/svp scf=(tight,noincore,xqc) Test 
#IOP(5/87=12) Density=Current Pop=(MK,readradii) iop(6/33=2) iop(6/42=6)

loop3.holoCaM.run77.water2 

   0  1 
   C     65.18000000    57.44000000    30.72000000
   C     65.34000000    58.33000000    31.95000000
   O     66.30000000    58.19000000    32.70000000
   H     64.49400000    57.91200000    30.01700000
   H     66.15000000    57.30100000    30.24200000
   H     64.78100000    56.47100000    31.02100000
   N     64.28000000    59.01000000    32.38000000
   C     64.24000000    59.88000000    33.54000000
   C     63.95000000    58.98000000    34.73000000
   O     63.00000000    58.20000000    34.77000000
   C     63.00000000    60.76000000    33.51000000
   C     63.05000000    61.84000000    34.59000000
   O     63.82000000    61.70000000    35.56000000
   O     62.30000000    62.83000000    34.53000000
   H     63.51000000    58.97000000    31.73000000
   H     65.12000000    60.53000000    33.61000000
   H     62.07000000    60.21000000    33.64000000
   H     62.91000000    61.33000000    32.59000000
   N     64.90000000    59.05000000    35.66000000
   C     65.15000000    58.09000000    36.72000000
   C     64.03000000    58.07000000    37.74000000
   O     63.69000000    57.06000000    38.35000000
   C     66.52000000    58.33000000    37.35000000
   C     67.09000000    57.13000000    38.09000000
   C     68.17000000    57.51000000    39.09000000
   C     68.86000000    56.24000000    39.60000000
   N     69.62000000    56.69000000    40.77000000
   H     65.68000000    59.68000000    35.54000000
   H     65.20000000    57.10000000    36.26000000
   H     66.41000000    59.23000000    37.96000000
   H     67.22000000    58.45000000    36.52000000
   H     67.47000000    56.41000000    37.36000000
   H     66.34000000    56.64000000    38.71000000
   H     67.75000000    58.02000000    39.96000000
   H     68.86000000    58.15000000    38.54000000
   H     69.44000000    55.88000000    38.75000000
   H     68.20000000    55.45000000    39.96000000
   H     69.04000000    57.15000000    41.46000000
   H     70.14000000    55.92000000    41.16000000
   H     70.33000000    57.32000000    40.42000000
   N     63.31000000    59.18000000    37.92000000
   C     62.14000000    59.48000000    38.72000000
   C     60.90000000    60.02000000    38.02000000
   O     59.78000000    60.13000000    38.53000000
   C     62.54000000    60.39000000    39.88000000
   C     63.21000000    61.70000000    39.48000000
   O     63.94000000    61.85000000    38.48000000
   O     63.13000000    62.61000000    40.33000000
   H     63.66000000    59.92000000    37.32000000
   H     61.73000000    58.55000000    39.11000000
   H     63.31000000    59.93000000    40.50000000
   H     61.68000000    60.51000000    40.54000000
   N     61.08000000    60.39000000    36.75000000
   C     59.97000000    60.95000000    36.01000000
   C     59.64000000    62.40000000    36.35000000
   O     58.48000000    62.77000000    36.19000000
   H     61.97000000    60.35000000    36.28000000
   H     59.07000000    60.33000000    36.10000000
   H     60.27000000    60.98000000    34.96000000
   N     60.54000000    63.32000000    36.70000000
   C     60.19000000    64.69000000    37.01000000
   C     60.37000000    65.61000000    35.81000000
   O     60.21000000    66.82000000    35.97000000
   C     60.89000000    65.20000000    38.27000000
   C     62.38000000    65.43000000    38.08000000
   N     63.04000000    66.40000000    38.71000000
   O     63.01000000    64.87000000    37.18000000
   H     61.53000000    63.18000000    36.58000000
   H     59.13000000    64.67000000    37.23000000
   H     60.58000000    64.58000000    39.11000000
   H     60.47000000    66.16000000    38.58000000
   H     62.52000000    66.94000000    39.38000000
   H     64.03000000    66.53000000    38.56000000
   N     60.51000000    65.12000000    34.58000000
   C     60.67000000    65.91000000    33.37000000
   C     62.03000000    66.38000000    32.88000000
   O     62.05000000    67.18000000    31.95000000
   H     60.49000000    64.12000000    34.44000000
   H     60.03000000    66.79000000    33.40000000
   H     60.27000000    65.30000000    32.55000000
   N     63.12000000    65.92000000    33.51000000
   C     64.47000000    66.40000000    33.30000000
   C     65.45000000    65.26000000    33.51000000
   O     65.26000000    64.40000000    34.37000000
   C     64.68000000    67.55000000    34.28000000
   C     63.59000000    68.58000000    34.49000000
   C     63.08000000    68.87000000    35.76000000
   C     63.20000000    69.28000000    33.34000000
   C     61.93000000    69.68000000    35.79000000
   C     62.17000000    70.23000000    33.45000000
   C     61.53000000    70.45000000    34.69000000
   O     60.37000000    71.15000000    34.83000000
   H     62.98000000    65.26000000    34.25000000
   H     64.55000000    66.84000000    32.30000000
   H     65.60000000    68.01000000    33.95000000
   H     64.98000000    67.16000000    35.26000000
   H     63.35000000    68.30000000    36.64000000
   H     63.75000000    69.18000000    32.42000000
   H     61.43000000    69.91000000    36.72000000
   H     61.76000000    70.66000000    32.56000000
   H     60.15000000    71.71000000    34.08000000
   N     66.56000000    65.26000000    32.77000000
   C     67.53000000    64.19000000    32.81000000
   C     68.95000000    64.73000000    32.79000000
   O     69.35000000    65.52000000    31.93000000
   C     67.36000000    63.26000000    31.61000000
   C     65.97000000    62.65000000    31.61000000
   C     68.49000000    62.24000000    31.56000000
   C     65.71000000    61.67000000    30.47000000
   H     66.70000000    65.95000000    32.05000000
   H     67.37000000    63.56000000    33.69000000
   H     67.32000000    63.86000000    30.70000000
   H     65.15000000    63.36000000    31.70000000
   H     65.84000000    62.13000000    32.56000000
   H     68.49000000    61.44000000    30.82000000
   H     69.51000000    62.63000000    31.55000000
   H     68.47000000    61.73000000    32.52000000
   H     65.53000000    62.23000000    29.56000000
   H     66.62000000    61.11000000    30.26000000
   H     64.83000000    61.07000000    30.74000000
   N     69.75000000    64.33000000    33.78000000
   C     71.15000000    64.68000000    33.92000000
   C     72.09000000    63.70000000    33.23000000
   O     71.63000000    62.64000000    32.80000000
   C     71.44000000    64.78000000    35.42000000
   O     71.17000000    63.52000000    36.00000000
   H     69.31000000    63.83000000    34.54000000
   H     71.33000000    65.64000000    33.45000000
   H     70.85000000    65.57000000    35.88000000
   H     72.48000000    65.11000000    35.51000000
   H     71.19000000    63.60000000    36.96000000
   N     73.40000000    63.98000000    33.15000000
   C     74.32000000    62.90000000    32.85000000
   C     74.36000000    61.82000000    33.92000000
   O     74.63000000    60.66000000    33.60000000
   C     75.61000000    63.65000000    32.56000000
   H     73.76000000    64.89000000    33.39000000
   H     74.06000000    62.45000000    31.89000000
   H     75.73000000    64.45000000    33.29000000
   H     76.48000000    62.99000000    32.60000000
   H     75.50000000    64.10000000    31.57000000
   N     74.10000000    62.12000000    35.19000000
   C     74.14000000    61.02000000    36.14000000
   C     73.06000000    59.99000000    35.82000000
   O     73.32000000    58.80000000    35.67000000
   C     73.94000000    61.53000000    37.56000000
   H     74.15000000    63.07000000    35.51000000
   H     75.10000000    60.51000000    36.09000000
   H     74.16000000    60.68000000    38.20000000
   H     74.69000000    62.28000000    37.81000000
   H     72.88000000    61.79000000    37.60000000
   N     71.86000000    60.47000000    35.49000000
   C     70.71000000    59.67000000    35.12000000
   C     70.87000000    58.85000000    33.86000000
   O     70.25000000    57.79000000    33.71000000
   C     69.51000000    60.62000000    35.06000000
   C     69.21000000    61.00000000    36.51000000
   C     67.89000000    61.75000000    36.65000000
   O     66.94000000    61.49000000    35.88000000
   O     67.67000000    62.67000000    37.47000000
   H     71.67000000    61.43000000    35.74000000
   H     70.48000000    58.90000000    35.86000000
   H     68.62000000    60.19000000    34.60000000
   H     69.82000000    61.48000000    34.47000000
   H     70.03000000    61.59000000    36.92000000
   H     69.12000000    60.06000000    37.04000000
   N     71.51000000    59.47000000    32.87000000
   C     71.81000000    58.97000000    31.54000000
   H     72.84600000    58.63300000    31.50400000
   H     71.14900000    58.13500000    31.30700000
   H     71.66200000    59.76600000    30.81000000
   H     71.99000000    60.31000000    33.16000000
  Ca     65.21000000    63.37000000    36.77000000
   O     66.51000000    65.82000000    36.89000000
   H     66.45000000    66.19000000    37.77000000
   H     66.94000000    66.50000000    36.37000000
   O     65.14000000    64.21000000    39.25000000
   H     65.28000000    64.68000000    40.08000000
   H     64.41000000    63.62000000    39.42000000

Ca 1.00



