%chk=loop2.apoCaM-CA-Ng.Init293.run53.water6.chk
%nprocshared=20
%mem=10GB
%nosave
#b3lyp/svp scf=(tight,noincore,xqc) Test 
#IOP(5/87=12) Density=Current Pop=(MK,readradii) iop(6/33=2) iop(6/42=6)

loop2.apoCaM-CA-Ng.Init293.run53.water6 

   -2  1 
   C     65.38000000    98.51000000    99.07000000
   C     66.61000000    98.58000000    99.97000000
   O     66.55000000    98.10000000   101.10000000
   H     64.59500000    99.14600000    99.47900000
   H     65.64100000    98.85400000    98.06900000
   H     65.02400000    97.48100000    99.02000000
   N     67.65000000    99.37000000    99.71000000
   C     68.73000000    99.75000000   100.60000000
   C     68.48000000   100.57000000   101.86000000
   O     69.36000000   100.52000000   102.72000000
   C     69.71000000   100.54000000    99.73000000
   C     70.95000000   101.17000000   100.33000000
   O     71.01000000   102.42000000   100.42000000
   O     71.97000000   100.50000000   100.62000000
   H     67.66000000    99.86000000    98.83000000
   H     69.18000000    98.80000000   100.91000000
   H     69.14000000   101.38000000    99.34000000
   H     69.93000000   100.00000000    98.81000000
   N     67.32000000   101.21000000   102.02000000
   C     66.98000000   102.26000000   102.95000000
   C     66.96000000   101.75000000   104.38000000
   O     67.68000000   102.28000000   105.23000000
   C     67.88000000   103.45000000   102.60000000
   H     66.63000000   100.99000000   101.32000000
   H     65.97000000   102.66000000   102.81000000
   H     67.65000000   104.23000000   103.33000000
   H     68.90000000   103.06000000   102.57000000
   H     67.59000000   103.74000000   101.59000000
   N     66.08000000   100.79000000   104.69000000
   C     66.11000000   100.03000000   105.92000000
   C     67.44000000    99.53000000   106.46000000
   O     67.71000000    99.28000000   107.63000000
   C     65.25000000   100.64000000   107.03000000
   C     64.20000000   101.60000000   106.50000000
   O     63.19000000   101.14000000   105.93000000
   O     64.33000000   102.83000000   106.69000000
   H     65.48000000   100.47000000   103.94000000
   H     65.70000000    99.08000000   105.58000000
   H     65.96000000   101.10000000   107.72000000
   H     64.66000000    99.88000000   107.53000000
   N     68.33000000    99.29000000   105.49000000
   C     69.57000000    98.55000000   105.66000000
   C     69.40000000    97.25000000   106.43000000
   O     68.48000000    96.50000000   106.13000000
   H     68.22000000    99.80000000   104.63000000
   H     70.18000000    99.17000000   106.32000000
   H     70.06000000    98.42000000   104.70000000
   N     70.20000000    97.00000000   107.48000000
   C     70.03000000    95.92000000   108.43000000
   C     69.85000000    94.56000000   107.77000000
   O     68.95000000    93.78000000   108.07000000
   C     68.98000000    96.25000000   109.49000000
   C     69.41000000    97.38000000   110.40000000
   N     69.14000000    98.60000000   109.91000000
   O     69.83000000    97.18000000   111.54000000
   H     70.93000000    97.68000000   107.61000000
   H     71.01000000    95.94000000   108.92000000
   H     68.79000000    95.38000000   110.13000000
   H     68.05000000    96.57000000   109.03000000
   H     68.71000000    98.76000000   109.01000000
   H     69.40000000    99.38000000   110.49000000
   N     70.63000000    94.26000000   106.73000000
   C     70.68000000    93.01000000   106.00000000
   C     69.85000000    92.94000000   104.73000000
   O     70.13000000    92.11000000   103.87000000
   H     71.30000000    95.00000000   106.58000000
   H     70.37000000    92.19000000   106.65000000
   H     71.68000000    92.64000000   105.76000000
   N     68.88000000    93.84000000   104.55000000
   C     68.07000000    94.01000000   103.36000000
   C     66.66000000    93.50000000   103.60000000
   O     66.08000000    93.69000000   104.67000000
   C     68.08000000    95.44000000   102.83000000
   C     69.45000000    96.09000000   102.73000000
   O     67.51000000    95.45000000   101.54000000
   H     68.63000000    94.45000000   105.31000000
   H     68.52000000    93.37000000   102.60000000
   H     67.53000000    96.04000000   103.56000000
   H     67.19000000    96.33000000   101.33000000
   H     70.12000000    95.51000000   102.09000000
   H     69.21000000    97.03000000   102.23000000
   H     69.82000000    96.38000000   103.71000000
   N     65.96000000    93.01000000   102.58000000
   C     64.58000000    92.56000000   102.69000000
   C     63.76000000    93.82000000   102.94000000
   O     63.90000000    94.92000000   102.42000000
   C     64.12000000    91.71000000   101.51000000
   C     64.16000000    92.52000000   100.22000000
   C     64.81000000    90.35000000   101.49000000
   C     64.27000000    91.78000000    98.89000000
   H     66.40000000    92.75000000   101.71000000
   H     64.48000000    91.95000000   103.59000000
   H     63.05000000    91.57000000   101.66000000
   H     64.94000000    93.28000000   100.20000000
   H     63.18000000    93.00000000   100.16000000
   H     64.78000000    89.98000000   102.51000000
   H     64.31000000    89.65000000   100.82000000
   H     65.87000000    90.50000000   101.29000000
   H     63.55000000    90.97000000    98.83000000
   H     64.10000000    92.51000000    98.10000000
   H     65.28000000    91.36000000    98.86000000
   N     62.88000000    93.73000000   103.94000000
   C     62.09000000    94.76000000   104.58000000
   C     62.16000000    94.51000000   106.08000000
   O     61.15000000    94.32000000   106.76000000
   C     60.69000000    94.83000000   103.96000000
   C     60.00000000    96.13000000   104.37000000
   O     60.69000000    97.16000000   104.50000000
   O     58.75000000    96.19000000   104.45000000
   H     62.62000000    92.81000000   104.28000000
   H     62.60000000    95.70000000   104.39000000
   H     60.14000000    94.07000000   104.51000000
   H     60.57000000    94.78000000   102.88000000
   N     63.36000000    94.44000000   106.66000000
   C     63.65000000    94.30000000   108.07000000
   C     63.04000000    93.07000000   108.74000000
   O     62.17000000    93.24000000   109.59000000
   C     65.16000000    94.42000000   108.25000000
   C     65.67000000    94.33000000   109.68000000
   C     66.19000000    93.11000000   110.11000000
   C     65.82000000    95.47000000   110.48000000
   C     66.48000000    92.97000000   111.47000000
   C     66.26000000    95.34000000   111.80000000
   C     66.45000000    94.06000000   112.34000000
   H     64.11000000    94.64000000   106.01000000
   H     63.24000000    95.17000000   108.57000000
   H     65.51000000    95.36000000   107.84000000
   H     65.68000000    93.67000000   107.65000000
   H     66.36000000    92.30000000   109.41000000
   H     65.57000000    96.44000000   110.08000000
   H     66.86000000    92.03000000   111.86000000
   H     66.32000000    96.19000000   112.47000000
   H     66.65000000    94.01000000   113.40000000
   N     63.31000000    91.81000000   108.37000000
   C     63.90000000    91.39000000   107.12000000
   C     62.91000000    90.88000000   106.09000000
   O     63.26000000    90.15000000   105.16000000
   C     64.79000000    90.24000000   107.60000000
   C     63.83000000    89.50000000   108.52000000
   C     63.14000000    90.66000000   109.24000000
   H     64.48000000    92.22000000   106.70000000
   H     65.30000000    89.68000000   106.82000000
   H     65.61000000    90.65000000   108.18000000
   H     63.07000000    88.89000000   108.02000000
   H     64.40000000    88.93000000   109.26000000
   H     62.10000000    90.41000000   109.43000000
   H     63.65000000    90.77000000   110.20000000
   N     61.61000000    91.09000000   106.33000000
   C     60.53000000    90.37000000   105.69000000
   C     60.42000000    90.57000000   104.19000000
   O     60.50000000    91.71000000   103.73000000
   C     59.24000000    90.68000000   106.44000000
   C     58.03000000    89.81000000   106.10000000
   C     58.25000000    88.32000000   106.27000000
   O     57.99000000    87.68000000   107.32000000
   O     58.74000000    87.61000000   105.37000000
   H     61.36000000    91.69000000   107.10000000
   H     60.83000000    89.33000000   105.84000000
   H     58.94000000    91.72000000   106.27000000
   H     59.42000000    90.56000000   107.51000000
   H     57.81000000    90.01000000   105.05000000
   H     57.18000000    90.13000000   106.71000000
   N     60.18000000    89.49000000   103.45000000
   C     59.96000000    89.37000000   102.02000000
   H     59.22900000    90.11300000   101.70200000
   H     60.89900000    89.53600000   101.49200000
   H     59.58600000    88.37200000   101.79200000
   H     60.16000000    88.62000000   103.98000000
  Ca     61.37000000    99.33000000   105.73500000
   O     60.80000000    97.88000000   107.98500000
   H     60.13000000    97.19000000   107.97500000
   H     60.78000000    98.22000000   108.87500000
   O     63.22000000    98.82000000   103.65500000
   H     64.01000000    98.29000000   103.56500000
   H     63.28000000    99.47000000   102.96500000
   O     58.80000000    98.73000000   105.87500000
   H     58.75000000    97.84000000   105.53500000
   H     57.90000000    99.05000000   105.85500000
   O     59.90000000   101.39500000   105.12500000
   H     59.27000000   101.74500000   105.75500000
   H     59.51000000   101.55500000   104.26500000
   O     61.29000000   101.13500000   108.06500000
   H     61.32000000   101.96500000   107.58500000
   H     61.11000000   101.39500000   108.97500000
   O     63.55000000    97.79000000   106.64500000
   H     64.40000000    97.38000000   106.50500000
   H     63.33000000    97.58000000   107.55500000

Ca 1.00



