%chk=loop4.holoCaM-CaMKII.run32.water2.chk
%nprocshared=20
%mem=10GB
%nosave
#b3lyp/svp scf=(tight,noincore,xqc) Test 
#IOP(5/87=12) Density=Current Pop=(MK,readradii) iop(6/33=2) iop(6/42=6)

loop4.holoCaM-CaMKII.run32.water2 

   -3  1 
   C     93.71000000    53.51000000    29.23000000
   C     93.76000000    53.10000000    30.69000000
   O     92.79000000    53.35000000    31.40000000
   H     93.62500000    54.59400000    29.16000000
   H     94.62200000    53.18400000    28.72900000
   H     92.84700000    53.04700000    28.75100000
   N     94.86000000    52.54000000    31.20000000
   C     94.95000000    52.16000000    32.60000000
   C     95.27000000    53.43000000    33.39000000
   O     96.33000000    54.03000000    33.24000000
   C     95.99000000    51.06000000    32.75000000
   C     96.07000000    50.40000000    34.12000000
   O     95.36000000    50.87000000    35.04000000
   O     96.87000000    49.45000000    34.26000000
   H     95.64000000    52.26000000    30.62000000
   H     93.98000000    51.79000000    32.95000000
   H     96.93000000    51.56000000    32.49000000
   H     95.84000000    50.29000000    32.00000000
   N     94.36000000    53.82000000    34.28000000
   C     94.57000000    55.01000000    35.08000000
   C     95.52000000    54.83000000    36.27000000
   O     96.44000000    55.62000000    36.45000000
   C     93.24000000    55.58000000    35.56000000
   C     92.06000000    55.47000000    34.59000000
   C     93.41000000    56.95000000    36.21000000
   C     92.27000000    56.44000000    33.43000000
   H     93.59000000    53.22000000    34.54000000
   H     94.97000000    55.80000000    34.45000000
   H     92.88000000    55.05000000    36.43000000
   H     91.13000000    55.67000000    35.12000000
   H     92.02000000    54.43000000    34.27000000
   H     93.78000000    56.76000000    37.22000000
   H     94.02000000    57.59000000    35.57000000
   H     92.48000000    57.49000000    36.38000000
   H     93.31000000    56.28000000    33.14000000
   H     91.60000000    56.34000000    32.58000000
   H     92.24000000    57.45000000    33.84000000
   N     95.42000000    53.70000000    36.97000000
   C     96.24000000    53.42000000    38.13000000
   C     97.49000000    52.59000000    37.89000000
   O     98.41000000    52.56000000    38.70000000
   C     95.46000000    52.92000000    39.34000000
   C     94.63000000    51.66000000    39.10000000
   O     94.68000000    51.00000000    38.04000000
   O     93.77000000    51.33000000    39.94000000
   H     94.73000000    53.02000000    36.69000000
   H     96.63000000    54.40000000    38.44000000
   H     94.81000000    53.71000000    39.72000000
   H     96.22000000    52.76000000    40.11000000
   N     97.39000000    51.73000000    36.88000000
   C     98.64000000    51.16000000    36.39000000
   C     99.07000000    49.81000000    36.95000000
   O    100.09000000    49.66000000    37.62000000
   H     96.50000000    51.59000000    36.43000000
   H     99.44000000    51.86000000    36.60000000
   H     98.51000000    51.04000000    35.31000000
   N     98.30000000    48.77000000    36.61000000
   C     98.43000000    47.35000000    36.87000000
   C     98.49000000    46.49000000    35.62000000
   O     98.88000000    45.33000000    35.72000000
   C     97.33000000    46.87000000    37.81000000
   C     95.92000000    47.16000000    37.33000000
   O     95.25000000    48.12000000    37.78000000
   O     95.50000000    46.48000000    36.37000000
   H     97.58000000    49.02000000    35.95000000
   H     99.38000000    47.21000000    37.38000000
   H     97.41000000    47.42000000    38.75000000
   H     97.37000000    45.79000000    37.98000000
   N     98.20000000    46.99000000    34.42000000
   C     98.24000000    46.29000000    33.15000000
   C     96.83000000    45.93000000    32.69000000
   O     96.73000000    45.34000000    31.61000000
   H     97.85000000    47.93000000    34.35000000
   H     98.82000000    45.37000000    33.22000000
   H     98.66000000    46.93000000    32.38000000
   N     95.70000000    46.27000000    33.30000000
   C     94.36000000    46.05000000    32.80000000
   C     93.47000000    47.28000000    32.94000000
   O     93.74000000    48.20000000    33.71000000
   C     93.75000000    44.76000000    33.34000000
   C     94.41000000    43.41000000    33.09000000
   C     93.92000000    42.27000000    33.97000000
   N     94.81000000    41.53000000    34.64000000
   O     92.73000000    42.00000000    34.11000000
   H     95.78000000    46.64000000    34.24000000
   H     94.43000000    45.91000000    31.72000000
   H     92.72000000    44.74000000    32.97000000
   H     93.54000000    44.87000000    34.41000000
   H     95.48000000    43.49000000    33.27000000
   H     94.22000000    43.22000000    32.03000000
   H     95.78000000    41.80000000    34.67000000
   H     94.49000000    40.72000000    35.14000000
   N     92.37000000    47.26000000    32.19000000
   C     91.31000000    48.25000000    32.12000000
   C     89.97000000    47.84000000    32.72000000
   O     89.32000000    46.92000000    32.24000000
   C     91.21000000    48.72000000    30.68000000
   C     90.51000000    50.08000000    30.64000000
   C     92.52000000    48.80000000    29.90000000
   H     92.38000000    46.58000000    31.44000000
   H     91.65000000    49.07000000    32.76000000
   H     90.56000000    48.05000000    30.12000000
   H     91.16000000    50.85000000    31.06000000
   H     90.26000000    50.30000000    29.60000000
   H     89.61000000    49.98000000    31.24000000
   H     92.96000000    47.83000000    29.70000000
   H     92.47000000    49.28000000    28.92000000
   H     93.24000000    49.44000000    30.41000000
   N     89.55000000    48.52000000    33.79000000
   C     88.27000000    48.27000000    34.42000000
   C     87.21000000    49.12000000    33.72000000
   O     87.56000000    49.89000000    32.84000000
   C     88.35000000    48.31000000    35.94000000
   C     87.24000000    49.07000000    36.65000000
   N     86.22000000    48.39000000    37.19000000
   O     87.35000000    50.27000000    36.90000000
   H     90.09000000    49.26000000    34.21000000
   H     87.97000000    47.25000000    34.18000000
   H     89.28000000    48.81000000    36.22000000
   H     88.45000000    47.31000000    36.35000000
   H     86.11000000    47.41000000    37.00000000
   H     85.55000000    48.89000000    37.76000000
   N     85.94000000    48.91000000    34.08000000
   C     84.86000000    49.64000000    33.43000000
   C     84.91000000    51.13000000    33.70000000
   O     84.57000000    51.87000000    32.78000000
   C     83.55000000    48.98000000    33.88000000
   C     82.30000000    49.66000000    33.39000000
   C     82.23000000    50.12000000    32.07000000
   C     81.18000000    49.73000000    34.22000000
   C     81.01000000    50.57000000    31.54000000
   C     79.98000000    50.29000000    33.77000000
   C     79.96000000    50.79000000    32.46000000
   O     78.81000000    51.39000000    32.01000000
   H     85.70000000    48.32000000    34.86000000
   H     85.10000000    49.61000000    32.37000000
   H     83.45000000    49.07000000    34.96000000
   H     83.44000000    47.97000000    33.51000000
   H     83.09000000    49.92000000    31.45000000
   H     81.25000000    49.40000000    35.25000000
   H     80.97000000    50.91000000    30.52000000
   H     79.13000000    50.41000000    34.44000000
   H     78.22000000    51.42000000    32.77000000
   N     85.14000000    51.54000000    34.95000000
   C     85.26000000    52.94000000    35.31000000
   C     86.39000000    53.61000000    34.55000000
   O     86.31000000    54.75000000    34.09000000
   C     85.56000000    53.02000000    36.81000000
   C     85.74000000    54.46000000    37.28000000
   C     86.05000000    54.59000000    38.76000000
   O     86.79000000    55.46000000    39.28000000
   O     85.66000000    53.68000000    39.52000000
   H     85.50000000    50.93000000    35.67000000
   H     84.38000000    53.53000000    35.06000000
   H     86.46000000    52.44000000    36.97000000
   H     84.78000000    52.42000000    37.28000000
   H     84.90000000    55.07000000    36.96000000
   H     86.60000000    54.85000000    36.73000000
   N     87.56000000    52.97000000    34.37000000
   C     88.74000000    53.42000000    33.66000000
   C     88.41000000    53.52000000    32.18000000
   O     88.68000000    54.57000000    31.60000000
   C     89.94000000    52.49000000    33.83000000
   C     90.30000000    52.31000000    35.30000000
   C     91.45000000    51.35000000    35.54000000
   O     92.54000000    51.79000000    35.96000000
   O     91.36000000    50.15000000    35.19000000
   H     87.67000000    52.08000000    34.82000000
   H     88.96000000    54.43000000    34.02000000
   H     90.85000000    52.87000000    33.34000000
   H     89.66000000    51.52000000    33.43000000
   H     89.47000000    51.88000000    35.86000000
   H     90.47000000    53.28000000    35.77000000
   N     87.79000000    52.53000000    31.53000000
   C     87.38000000    52.63000000    30.14000000
   H     86.52700000    53.30400000    30.06100000
   H     88.20600000    53.01900000    29.54400000
   H     87.09800000    51.64400000    29.77200000
   H     87.61000000    51.70000000    32.07000000
  Ca     93.66000000    49.47000000    36.23000000
   O     92.16000000    49.69000000    38.46000000
   H     91.30000000    49.96000000    38.77000000
   H     92.77000000    50.31000000    38.86000000
   O     92.90000000    46.90000000    36.25000000
   H     92.54000000    46.26000000    36.87000000
   H     93.81000000    46.63000000    36.13000000

Ca 1.00



