%chk=loop1.holoCaM.run19.water2.chk
%nprocshared=20
%mem=10GB
%nosave
#b3lyp/svp scf=(tight,noincore,xqc) Test 
#IOP(5/87=12) Density=Current Pop=(MK,readradii) iop(6/33=2) iop(6/42=6)

loop1.holoCaM.run19.water2 

   0  1 
   C     66.95000000    58.17000000    -4.57000000
   C     66.22000000    57.97000000    -5.88000000
   O     66.87000000    57.83000000    -6.92000000
   H     67.84700000    58.76500000    -4.74200000
   H     66.29900000    58.68900000    -3.86600000
   H     67.23100000    57.20100000    -4.15800000
   N     64.88000000    58.05000000    -5.86000000
   C     64.03000000    58.09000000    -7.04000000
   C     64.29000000    59.51000000    -7.53000000
   O     64.09000000    60.46000000    -6.78000000
   C     62.59000000    57.79000000    -6.63000000
   C     61.57000000    58.01000000    -7.73000000
   O     60.41000000    58.37000000    -7.44000000
   O     62.07000000    57.98000000    -8.88000000
   H     64.42000000    58.24000000    -4.99000000
   H     64.32000000    57.42000000    -7.85000000
   H     62.33000000    58.47000000    -5.82000000
   H     62.53000000    56.75000000    -6.32000000
   N     64.70000000    59.73000000    -8.78000000
   C     65.02000000    61.04000000    -9.32000000
   C     63.90000000    61.74000000   -10.07000000
   O     63.84000000    62.97000000   -10.16000000
   C     66.33000000    60.92000000   -10.09000000
   C     67.55000000    60.53000000    -9.26000000
   C     67.75000000    61.35000000    -7.99000000
   C     69.08000000    60.96000000    -7.35000000
   N     69.45000000    61.85000000    -6.24000000
   H     64.75000000    58.92000000    -9.38000000
   H     65.20000000    61.73000000    -8.50000000
   H     66.49000000    61.78000000   -10.73000000
   H     66.17000000    60.11000000   -10.80000000
   H     68.43000000    60.62000000    -9.90000000
   H     67.46000000    59.48000000    -8.98000000
   H     66.88000000    61.21000000    -7.35000000
   H     67.84000000    62.42000000    -8.21000000
   H     69.71000000    60.94000000    -8.24000000
   H     69.08000000    59.93000000    -7.02000000
   H     70.28000000    61.48000000    -5.79000000
   H     69.71000000    62.80000000    -6.50000000
   H     68.66000000    61.88000000    -5.61000000
   N     63.05000000    60.95000000   -10.73000000
   C     61.96000000    61.54000000   -11.48000000
   C     60.62000000    61.66000000   -10.77000000
   O     59.72000000    62.35000000   -11.24000000
   C     61.80000000    60.82000000   -12.81000000
   C     61.85000000    59.30000000   -12.70000000
   O     61.56000000    58.75000000   -11.61000000
   O     62.03000000    58.69000000   -13.77000000
   H     63.21000000    59.96000000   -10.70000000
   H     62.16000000    62.59000000   -11.70000000
   H     62.66000000    61.13000000   -13.41000000
   H     60.91000000    61.15000000   -13.35000000
   N     60.43000000    60.95000000    -9.65000000
   C     59.31000000    61.10000000    -8.75000000
   C     58.12000000    60.20000000    -9.04000000
   O     57.04000000    60.62000000    -8.65000000
   H     61.11000000    60.20000000    -9.57000000
   H     59.03000000    62.15000000    -8.65000000
   H     59.77000000    60.86000000    -7.79000000
   N     58.25000000    59.00000000    -9.61000000
   C     57.27000000    57.96000000    -9.88000000
   C     57.03000000    57.10000000    -8.65000000
   O     56.11000000    56.29000000    -8.55000000
   C     57.62000000    57.14000000   -11.12000000
   C     59.04000000    56.60000000   -11.09000000
   O     59.73000000    56.41000000   -12.11000000
   O     59.48000000    56.14000000   -10.01000000
   H     59.22000000    58.76000000    -9.78000000
   H     56.29000000    58.42000000   -10.03000000
   H     57.65000000    57.79000000   -12.00000000
   H     56.96000000    56.29000000   -11.29000000
   N     57.79000000    57.36000000    -7.59000000
   C     57.82000000    56.55000000    -6.38000000
   C     58.37000000    55.13000000    -6.37000000
   O     57.92000000    54.29000000    -5.60000000
   H     58.54000000    58.03000000    -7.70000000
   H     56.90000000    56.58000000    -5.80000000
   H     58.53000000    57.12000000    -5.77000000
   N     59.18000000    54.85000000    -7.39000000
   C     59.94000000    53.62000000    -7.48000000
   C     61.36000000    53.87000000    -7.94000000
   O     61.67000000    54.93000000    -8.48000000
   C     59.28000000    52.60000000    -8.41000000
   C     57.90000000    52.21000000    -7.90000000
   O     59.21000000    53.27000000    -9.64000000
   H     59.45000000    55.61000000    -8.00000000
   H     60.03000000    53.14000000    -6.50000000
   H     59.90000000    51.72000000    -8.61000000
   H     59.26000000    54.21000000    -9.45000000
   H     57.45000000    51.36000000    -8.42000000
   H     58.01000000    51.86000000    -6.88000000
   H     57.20000000    53.04000000    -8.01000000
   N     62.21000000    52.84000000    -7.86000000
   C     63.61000000    52.88000000    -8.25000000
   C     63.96000000    51.87000000    -9.33000000
   O     63.34000000    50.81000000    -9.25000000
   C     64.55000000    52.82000000    -7.05000000
   C     64.60000000    54.09000000    -6.21000000
   C     66.00000000    52.51000000    -7.41000000
   C     64.86000000    53.88000000    -4.72000000
   H     61.84000000    51.99000000    -7.46000000
   H     63.87000000    53.80000000    -8.77000000
   H     64.13000000    52.00000000    -6.46000000
   H     63.66000000    54.65000000    -6.24000000
   H     65.35000000    54.74000000    -6.65000000
   H     66.35000000    53.28000000    -8.11000000
   H     66.47000000    52.39000000    -6.44000000
   H     66.04000000    51.50000000    -7.82000000
   H     65.90000000    53.54000000    -4.62000000
   H     64.91000000    54.86000000    -4.23000000
   H     64.23000000    53.11000000    -4.28000000
   N     64.97000000    52.05000000   -10.19000000
   C     65.27000000    51.24000000   -11.35000000
   C     66.77000000    51.14000000   -11.58000000
   O     67.51000000    51.89000000   -10.94000000
   C     64.36000000    51.60000000   -12.51000000
   C     64.71000000    52.94000000   -13.15000000
   O     64.53000000    50.52000000   -13.40000000
   H     65.41000000    52.95000000   -10.19000000
   H     65.01000000    50.22000000   -11.06000000
   H     63.30000000    51.62000000   -12.24000000
   H     63.90000000    50.62000000   -14.12000000
   H     65.65000000    52.86000000   -13.69000000
   H     63.91000000    53.23000000   -13.82000000
   H     64.77000000    53.63000000   -12.31000000
   N     67.25000000    50.35000000   -12.54000000
   C     68.66000000    50.26000000   -12.86000000
   C     69.39000000    51.57000000   -13.08000000
   O     70.54000000    51.60000000   -12.64000000
   C     68.94000000    49.38000000   -14.08000000
   C     68.45000000    47.95000000   -13.92000000
   O     68.23000000    49.76000000   -15.24000000
   H     66.63000000    49.66000000   -12.95000000
   H     69.19000000    49.78000000   -12.04000000
   H     70.00000000    49.29000000   -14.32000000
   H     68.74000000    49.75000000   -16.05000000
   H     67.37000000    47.81000000   -13.87000000
   H     68.81000000    47.33000000   -14.74000000
   H     68.99000000    47.64000000   -13.03000000
   N     68.70000000    52.60000000   -13.58000000
   C     69.29000000    53.90000000   -13.79000000
   C     69.52000000    54.64000000   -12.48000000
   O     70.53000000    55.32000000   -12.27000000
   C     68.47000000    54.74000000   -14.77000000
   C     68.53000000    54.12000000   -16.16000000
   C     67.85000000    54.81000000   -17.34000000
   C     68.36000000    56.23000000   -17.56000000
   N     69.50000000    56.33000000   -18.49000000
   H     67.82000000    52.37000000   -14.04000000
   H     70.24000000    53.77000000   -14.29000000
   H     68.86000000    55.76000000   -14.67000000
   H     67.45000000    54.76000000   -14.39000000
   H     68.20000000    53.08000000   -16.16000000
   H     69.58000000    53.96000000   -16.43000000
   H     66.78000000    54.85000000   -17.12000000
   H     68.03000000    54.25000000   -18.25000000
   H     68.68000000    56.69000000   -16.62000000
   H     67.53000000    56.82000000   -17.95000000
   H     69.21000000    55.83000000   -19.31000000
   H     69.57000000    57.30000000   -18.77000000
   H     70.37000000    56.03000000   -18.07000000
   N     68.70000000    54.34000000   -11.47000000
   C     68.64000000    55.10000000   -10.23000000
   C     69.45000000    54.45000000    -9.12000000
   O     70.01000000    55.17000000    -8.30000000
   C     67.17000000    55.23000000    -9.86000000
   C     66.60000000    56.20000000   -10.88000000
   C     65.09000000    56.37000000   -10.72000000
   O     64.42000000    55.35000000   -10.45000000
   O     64.57000000    57.50000000   -10.83000000
   H     68.02000000    53.60000000   -11.54000000
   H     69.14000000    56.07000000   -10.28000000
   H     67.08000000    55.71000000    -8.88000000
   H     66.68000000    54.26000000    -9.86000000
   H     66.85000000    55.96000000   -11.92000000
   H     67.05000000    57.18000000   -10.72000000
   N     69.46000000    53.11000000    -9.03000000
   C     69.90000000    52.37000000    -7.87000000
   H     70.78200000    52.85000000    -7.44600000
   H     69.10400000    52.35300000    -7.12600000
   H     70.14800000    51.34900000    -8.16200000
   H     68.77000000    52.65000000    -9.61000000
  Ca     62.06000000    56.38000000   -10.87100000
   O     62.87000000    56.20000000   -13.50100000
   H     62.30000000    56.89000000   -13.83100000
   H     63.13000000    55.71000000   -14.28100000
   O     61.54000000    53.81000000   -11.11100000
   H     60.82000000    53.48000000   -10.57100000
   H     61.32000000    53.52000000   -12.00100000

Ca 1.00



