%chk=loop1.apoCaM-CA-Ng.Init295.run14.water5.chk
%nprocshared=20
%mem=10GB
%nosave
#b3lyp/svp scf=(tight,noincore,xqc) Test 
#IOP(5/87=12) Density=Current Pop=(MK,readradii) iop(6/33=2) iop(6/42=6)

loop1.apoCaM-CA-Ng.Init295.run14.water5 

   0  1 
   C     65.86000000    49.56000000    60.05000000
   C     65.98000000    49.02000000    58.63000000
   O     65.79000000    47.83000000    58.38000000
   H     64.80700000    49.68100000    60.30400000
   H     66.32300000    48.86000000    60.74600000
   H     66.36200000    50.52500000    60.11600000
   N     66.41000000    49.90000000    57.73000000
   C     66.65000000    49.67000000    56.32000000
   C     65.47000000    49.07000000    55.57000000
   O     65.52000000    48.08000000    54.85000000
   C     67.99000000    48.99000000    56.10000000
   C     68.46000000    49.00000000    54.65000000
   O     69.00000000    48.03000000    54.08000000
   O     68.19000000    50.01000000    53.96000000
   H     66.80000000    50.76000000    58.11000000
   H     66.69000000    50.69000000    55.92000000
   H     67.84000000    47.95000000    56.40000000
   H     68.76000000    49.39000000    56.76000000
   N     64.26000000    49.62000000    55.76000000
   C     63.00000000    49.12000000    55.27000000
   C     62.35000000    50.06000000    54.26000000
   O     61.40000000    49.72000000    53.56000000
   C     62.00000000    48.84000000    56.39000000
   C     62.48000000    48.01000000    57.58000000
   C     61.51000000    47.78000000    58.73000000
   C     60.24000000    47.07000000    58.28000000
   N     59.18000000    46.93000000    59.29000000
   H     64.21000000    50.53000000    56.20000000
   H     63.15000000    48.22000000    54.67000000
   H     61.16000000    48.25000000    56.03000000
   H     61.47000000    49.74000000    56.68000000
   H     63.31000000    48.53000000    58.06000000
   H     62.92000000    47.07000000    57.26000000
   H     61.29000000    48.72000000    59.23000000
   H     62.01000000    47.10000000    59.42000000
   H     60.57000000    46.06000000    58.05000000
   H     59.86000000    47.61000000    57.41000000
   H     58.75000000    47.82000000    59.52000000
   H     58.44000000    46.33000000    58.96000000
   H     59.49000000    46.53000000    60.17000000
   N     62.88000000    51.27000000    54.07000000
   C     62.28000000    52.34000000    53.30000000
   C     62.56000000    52.25000000    51.80000000
   O     61.80000000    52.77000000    50.99000000
   C     62.76000000    53.70000000    53.79000000
   C     61.90000000    54.93000000    53.53000000
   O     62.30000000    56.06000000    53.90000000
   O     60.83000000    54.80000000    52.89000000
   H     63.81000000    51.46000000    54.42000000
   H     61.20000000    52.36000000    53.44000000
   H     63.72000000    53.88000000    53.30000000
   H     62.92000000    53.66000000    54.86000000
   N     63.62000000    51.55000000    51.39000000
   C     64.23000000    51.51000000    50.08000000
   C     64.78000000    52.82000000    49.54000000
   O     65.79000000    52.70000000    48.84000000
   H     64.14000000    51.07000000    52.11000000
   H     63.50000000    51.06000000    49.40000000
   H     65.10000000    50.86000000    50.03000000
   N     64.22000000    53.99000000    49.85000000
   C     64.78000000    55.29000000    49.55000000
   C     65.28000000    56.15000000    50.70000000
   O     65.68000000    57.29000000    50.49000000
   C     63.78000000    55.96000000    48.61000000
   C     62.31000000    55.89000000    49.02000000
   O     62.08000000    56.04000000    50.24000000
   O     61.40000000    55.88000000    48.16000000
   H     63.31000000    53.87000000    50.27000000
   H     65.64000000    55.06000000    48.92000000
   H     63.97000000    55.43000000    47.68000000
   H     64.17000000    56.97000000    48.50000000
   N     65.25000000    55.58000000    51.91000000
   C     65.71000000    56.16000000    53.16000000
   C     66.23000000    55.18000000    54.20000000
   O     66.54000000    54.06000000    53.78000000
   H     64.86000000    54.65000000    51.93000000
   H     64.79000000    56.59000000    53.55000000
   H     66.47000000    56.91000000    52.93000000
   N     66.32000000    55.54000000    55.48000000
   C     66.75000000    54.74000000    56.61000000
   C     67.40000000    55.64000000    57.65000000
   O     67.22000000    56.85000000    57.50000000
   C     65.66000000    53.90000000    57.27000000
   C     64.38000000    54.69000000    57.51000000
   O     65.33000000    52.77000000    56.49000000
   H     66.16000000    56.52000000    55.68000000
   H     67.55000000    54.13000000    56.18000000
   H     66.00000000    53.50000000    58.23000000
   H     64.46000000    52.47000000    56.75000000
   H     63.63000000    54.19000000    58.12000000
   H     64.62000000    55.57000000    58.12000000
   H     63.91000000    54.98000000    56.57000000
   N     67.96000000    55.01000000    58.68000000
   C     68.07000000    55.65000000    59.97000000
   C     69.13000000    56.73000000    60.14000000
   O     69.01000000    57.52000000    61.06000000
   C     68.23000000    54.53000000    61.01000000
   C     67.34000000    54.79000000    62.22000000
   C     69.63000000    54.00000000    61.30000000
   C     65.82000000    54.80000000    62.17000000
   H     68.15000000    54.02000000    58.55000000
   H     67.09000000    56.08000000    60.18000000
   H     67.79000000    53.63000000    60.57000000
   H     67.77000000    55.68000000    62.70000000
   H     67.55000000    54.03000000    62.97000000
   H     70.09000000    53.42000000    60.51000000
   H     70.22000000    54.84000000    61.66000000
   H     69.68000000    53.28000000    62.11000000
   H     65.45000000    53.84000000    61.80000000
   H     65.42000000    54.85000000    63.18000000
   H     65.49000000    55.70000000    61.65000000
   N     70.17000000    56.87000000    59.31000000
   C     71.20000000    57.88000000    59.30000000
   C     72.51000000    57.28000000    58.80000000
   O     72.47000000    56.44000000    57.91000000
   C     70.80000000    59.08000000    58.45000000
   C     69.51000000    59.73000000    58.95000000
   O     71.91000000    59.93000000    58.61000000
   H     70.20000000    56.09000000    58.67000000
   H     71.34000000    58.34000000    60.29000000
   H     70.76000000    58.91000000    57.37000000
   H     71.92000000    60.48000000    57.82000000
   H     69.55000000    60.12000000    59.97000000
   H     69.17000000    60.53000000    58.29000000
   H     68.78000000    58.93000000    58.90000000
   N     73.64000000    57.71000000    59.35000000
   C     74.88000000    57.56000000    58.61000000
   C     76.11000000    57.63000000    59.50000000
   O     77.11000000    56.95000000    59.27000000
   C     74.86000000    58.64000000    57.53000000
   C     76.14000000    58.65000000    56.70000000
   O     74.67000000    59.90000000    58.14000000
   H     73.61000000    58.52000000    59.95000000
   H     75.03000000    56.61000000    58.11000000
   H     74.05000000    58.54000000    56.81000000
   H     73.75000000    60.03000000    58.37000000
   H     77.01000000    59.10000000    57.15000000
   H     76.30000000    57.62000000    56.36000000
   H     75.91000000    59.40000000    55.94000000
   N     76.00000000    58.38000000    60.60000000
   C     77.07000000    58.47000000    61.57000000
   C     76.63000000    59.02000000    62.91000000
   O     75.53000000    59.56000000    62.97000000
   C     78.11000000    59.37000000    60.90000000
   C     79.48000000    59.64000000    61.52000000
   C     80.37000000    60.71000000    60.88000000
   C     81.69000000    60.83000000    61.65000000
   N     82.63000000    61.72000000    60.96000000
   H     75.25000000    59.05000000    60.72000000
   H     77.52000000    57.48000000    61.71000000
   H     77.75000000    60.39000000    60.86000000
   H     78.28000000    59.12000000    59.86000000
   H     80.06000000    58.72000000    61.54000000
   H     79.30000000    59.87000000    62.57000000
   H     79.84000000    61.66000000    60.86000000
   H     80.56000000    60.47000000    59.84000000
   H     82.08000000    59.81000000    61.74000000
   H     81.55000000    61.22000000    62.65000000
   H     82.69000000    61.40000000    60.01000000
   H     82.36000000    62.68000000    60.79000000
   H     83.52000000    61.67000000    61.44000000
   N     77.48000000    58.75000000    63.91000000
   C     77.25000000    59.17000000    65.27000000
   C     75.86000000    58.98000000    65.88000000
   O     75.44000000    59.87000000    66.60000000
   C     78.37000000    58.59000000    66.13000000
   C     78.31000000    58.88000000    67.63000000
   C     78.40000000    60.36000000    67.99000000
   O     77.67000000    60.82000000    68.90000000
   O     79.29000000    61.04000000    67.44000000
   H     78.25000000    58.11000000    63.77000000
   H     77.49000000    60.23000000    65.37000000
   H     79.30000000    59.08000000    65.84000000
   H     78.46000000    57.52000000    65.98000000
   H     79.04000000    58.25000000    68.14000000
   H     77.28000000    58.67000000    67.89000000
   N     75.18000000    57.83000000    65.79000000
   C     75.58000000    56.52000000    65.33000000
   H     76.56400000    56.27900000    65.73300000
   H     74.85700000    55.77800000    65.67000000
   H     75.62200000    56.51400000    64.24100000
   H     74.34000000    57.92000000    66.35000000
  Ca     59.90000000    54.68000000    50.45000000
   O     57.54000000    54.64000000    49.12000000
   H     57.43000000    54.31000000    48.22000000
   H     56.65000000    54.84000000    49.40000000
   O     57.68000000    55.30000000    51.95000000
   H     57.42000000    56.22000000    51.87000000
   H     57.05000000    54.93000000    52.57000000
   O     59.25000000    57.30000000    50.19000000
   H     58.32000000    57.51000000    50.23000000
   H     59.67000000    58.11000000    49.92000000
   O     60.10000000    52.91000000    48.44000000
   H     59.92000000    51.98000000    48.58000000
   H     60.80000000    52.93000000    47.79000000
   O     58.68000000    52.36000000    51.07000000
   H     59.28000000    51.62000000    51.07000000
   H     57.88000000    52.02000000    51.47000000

Ca 1.00



