%chk=loop3.holoCaM.run16.water2.chk
%nprocshared=20
%mem=10GB
%nosave
#b3lyp/svp scf=(tight,noincore,xqc) Test 
#IOP(5/87=12) Density=Current Pop=(MK,readradii) iop(6/33=2) iop(6/42=6)

loop3.holoCaM.run16.water2 

   0  1 
   C     65.34000000    43.83000000    33.41000000
   C     65.68000000    42.64000000    34.31000000
   O     65.67000000    42.73000000    35.53000000
   H     64.47200000    44.35300000    33.81200000
   H     66.18900000    44.51200000    33.37300000
   H     65.11500000    43.47300000    32.40500000
   N     65.98000000    41.47000000    33.74000000
   C     66.80000000    40.38000000    34.23000000
   C     68.20000000    40.80000000    34.69000000
   O     69.16000000    40.60000000    33.95000000
   C     66.77000000    39.24000000    33.22000000
   C     67.49000000    37.97000000    33.66000000
   O     67.53000000    37.74000000    34.88000000
   O     67.89000000    37.18000000    32.77000000
   H     65.96000000    41.60000000    32.74000000
   H     66.36000000    39.97000000    35.14000000
   H     67.09000000    39.60000000    32.25000000
   H     65.74000000    38.88000000    33.19000000
   N     68.37000000    41.39000000    35.87000000
   C     69.58000000    41.93000000    36.47000000
   C     70.50000000    40.90000000    37.11000000
   O     71.61000000    41.30000000    37.43000000
   C     69.11000000    42.96000000    37.49000000
   C     68.59000000    44.11000000    36.62000000
   C     68.18000000    45.28000000    37.51000000
   C     67.53000000    46.45000000    36.79000000
   N     68.45000000    47.30000000    36.01000000
   H     67.53000000    41.47000000    36.43000000
   H     70.19000000    42.45000000    35.73000000
   H     69.93000000    43.38000000    38.07000000
   H     68.35000000    42.59000000    38.17000000
   H     67.66000000    43.77000000    36.17000000
   H     69.27000000    44.39000000    35.82000000
   H     69.06000000    45.59000000    38.07000000
   H     67.45000000    44.89000000    38.23000000
   H     67.02000000    47.05000000    37.54000000
   H     66.73000000    46.10000000    36.13000000
   H     68.54000000    48.22000000    36.41000000
   H     69.40000000    46.96000000    36.05000000
   H     67.95000000    47.37000000    35.14000000
   N     70.15000000    39.63000000    37.35000000
   C     71.09000000    38.57000000    37.65000000
   C     71.49000000    37.89000000    36.35000000
   O     72.38000000    37.05000000    36.35000000
   C     70.62000000    37.72000000    38.83000000
   C     69.33000000    36.91000000    38.70000000
   O     68.97000000    36.47000000    39.81000000
   O     68.78000000    36.77000000    37.58000000
   H     69.25000000    39.35000000    37.01000000
   H     72.05000000    38.97000000    37.97000000
   H     70.38000000    38.48000000    39.57000000
   H     71.38000000    37.07000000    39.26000000
   N     70.83000000    38.12000000    35.21000000
   C     71.11000000    37.42000000    33.97000000
   C     70.68000000    35.97000000    34.04000000
   O     70.95000000    35.34000000    33.01000000
   H     70.17000000    38.87000000    35.17000000
   H     72.17000000    37.36000000    33.70000000
   H     70.52000000    37.95000000    33.22000000
   N     69.99000000    35.43000000    35.05000000
   C     69.68000000    34.01000000    35.11000000
   C     68.68000000    33.46000000    34.10000000
   O     68.46000000    32.25000000    33.99000000
   C     69.38000000    33.52000000    36.52000000
   C     67.93000000    33.74000000    36.93000000
   N     67.45000000    33.01000000    37.94000000
   O     67.23000000    34.58000000    36.37000000
   H     69.61000000    36.03000000    35.76000000
   H     70.60000000    33.46000000    34.92000000
   H     69.95000000    34.09000000    37.25000000
   H     69.61000000    32.47000000    36.66000000
   H     68.15000000    32.40000000    38.34000000
   H     66.61000000    33.27000000    38.43000000
   N     68.07000000    34.34000000    33.32000000
   C     67.27000000    33.99000000    32.16000000
   C     65.76000000    33.95000000    32.35000000
   O     65.07000000    33.55000000    31.41000000
   H     68.32000000    35.32000000    33.42000000
   H     67.53000000    32.98000000    31.85000000
   H     67.49000000    34.77000000    31.44000000
   N     65.28000000    34.43000000    33.50000000
   C     63.90000000    34.48000000    33.94000000
   C     63.71000000    35.84000000    34.61000000
   O     64.63000000    36.58000000    34.93000000
   C     63.81000000    33.36000000    34.97000000
   C     64.28000000    31.98000000    34.58000000
   C     65.51000000    31.49000000    35.03000000
   C     63.51000000    31.16000000    33.74000000
   C     66.02000000    30.27000000    34.59000000
   C     63.98000000    29.91000000    33.32000000
   C     65.22000000    29.43000000    33.78000000
   O     65.63000000    28.18000000    33.40000000
   H     65.95000000    34.91000000    34.08000000
   H     63.25000000    34.26000000    33.09000000
   H     62.74000000    33.29000000    35.17000000
   H     64.33000000    33.55000000    35.91000000
   H     66.03000000    32.03000000    35.81000000
   H     62.56000000    31.53000000    33.38000000
   H     66.96000000    29.92000000    34.98000000
   H     63.37000000    29.22000000    32.76000000
   H     65.06000000    27.80000000    32.73000000
   N     62.42000000    36.08000000    34.88000000
   C     61.90000000    37.25000000    35.55000000
   C     61.15000000    36.95000000    36.84000000
   O     60.21000000    36.15000000    36.87000000
   C     61.11000000    38.12000000    34.57000000
   C     61.92000000    38.71000000    33.42000000
   C     60.36000000    39.22000000    35.32000000
   C     63.01000000    39.65000000    33.90000000
   H     61.78000000    35.32000000    34.71000000
   H     62.77000000    37.86000000    35.81000000
   H     60.37000000    37.46000000    34.11000000
   H     61.18000000    39.16000000    32.76000000
   H     62.27000000    37.88000000    32.80000000
   H     59.63000000    38.71000000    35.95000000
   H     60.96000000    39.81000000    36.01000000
   H     59.83000000    39.92000000    34.67000000
   H     62.58000000    40.61000000    34.15000000
   H     63.63000000    39.16000000    34.66000000
   H     63.70000000    39.84000000    33.08000000
   N     61.70000000    37.54000000    37.90000000
   C     61.21000000    37.58000000    39.26000000
   C     60.52000000    38.89000000    39.61000000
   O     60.59000000    39.80000000    38.79000000
   C     62.29000000    37.37000000    40.31000000
   O     62.69000000    36.02000000    40.18000000
   H     62.49000000    38.14000000    37.68000000
   H     60.41000000    36.83000000    39.33000000
   H     61.98000000    37.72000000    41.29000000
   H     63.13000000    38.03000000    40.12000000
   H     62.99000000    35.58000000    40.98000000
   N     59.66000000    38.87000000    40.63000000
   C     58.70000000    39.93000000    40.88000000
   C     59.37000000    41.29000000    41.00000000
   O     58.96000000    42.22000000    40.31000000
   C     57.87000000    39.53000000    42.10000000
   H     59.56000000    38.04000000    41.19000000
   H     58.02000000    40.00000000    40.04000000
   H     58.46000000    39.75000000    42.99000000
   H     56.90000000    40.01000000    42.17000000
   H     57.74000000    38.44000000    42.09000000
   N     60.54000000    41.40000000    41.64000000
   C     61.35000000    42.60000000    41.71000000
   C     61.74000000    43.09000000    40.32000000
   O     61.70000000    44.28000000    40.02000000
   C     62.56000000    42.42000000    42.62000000
   H     60.84000000    40.56000000    42.12000000
   H     60.80000000    43.46000000    42.11000000
   H     63.27000000    41.64000000    42.34000000
   H     63.02000000    43.41000000    42.60000000
   H     62.29000000    42.27000000    43.66000000
   N     62.15000000    42.25000000    39.37000000
   C     62.52000000    42.56000000    38.01000000
   C     61.27000000    42.97000000    37.25000000
   O     61.24000000    43.98000000    36.55000000
   C     63.26000000    41.39000000    37.37000000
   C     64.53000000    41.05000000    38.15000000
   C     65.16000000    39.74000000    37.69000000
   O     66.40000000    39.61000000    37.67000000
   O     64.49000000    38.73000000    37.39000000
   H     62.31000000    41.29000000    39.65000000
   H     63.16000000    43.44000000    38.10000000
   H     63.51000000    41.57000000    36.33000000
   H     62.66000000    40.48000000    37.28000000
   H     64.37000000    41.00000000    39.23000000
   H     65.22000000    41.89000000    38.01000000
   N     60.14000000    42.29000000    37.46000000
   C     58.86000000    42.53000000    36.82000000
   H     58.15100000    42.90900000    37.55700000
   H     58.98300000    43.26400000    36.02400000
   H     58.48300000    41.59800000    36.40000000
   H     60.21000000    41.54000000    38.13000000
  Ca     66.32000000    37.21000000    37.00000000
   O     66.44000000    36.15000000    39.63000000
   H     65.91000000    35.51000000    40.10000000
   H     67.35000000    35.87000000    39.78000000
   O     64.35000000    35.60000000    37.92000000
   H     64.29000000    34.65000000    37.96000000
   H     63.82000000    35.91000000    38.65000000

Ca 1.00



