%chk=loop1.apoCaM-CA-Ng.Init293.run40.water4.chk
%nprocshared=20
%mem=10GB
%nosave
#b3lyp/svp scf=(tight,noincore,xqc) Test 
#IOP(5/87=12) Density=Current Pop=(MK,readradii) iop(6/33=2) iop(6/42=6)

loop1.apoCaM-CA-Ng.Init293.run40.water4 

   0  1 
   C     33.02000000    81.24000000    26.99000000
   C     33.40000000    80.40000000    28.19000000
   O     33.57000000    79.19000000    28.08000000
   H     32.16500000    81.86700000    27.24200000
   H     33.86200000    81.87200000    26.70700000
   H     32.75800000    80.58700000    26.15700000
   N     33.56000000    80.99000000    29.38000000
   C     34.07000000    80.25000000    30.51000000
   C     33.17000000    79.22000000    31.18000000
   O     33.56000000    78.59000000    32.16000000
   C     34.50000000    81.20000000    31.62000000
   C     33.57000000    82.31000000    32.09000000
   O     32.62000000    82.79000000    31.43000000
   O     33.86000000    82.89000000    33.16000000
   H     33.11000000    81.89000000    29.53000000
   H     35.01000000    79.79000000    30.20000000
   H     35.36000000    81.74000000    31.23000000
   H     34.84000000    80.65000000    32.49000000
   N     31.94000000    79.05000000    30.69000000
   C     30.81000000    78.51000000    31.43000000
   C     30.01000000    77.53000000    30.60000000
   O     29.67000000    77.66000000    29.42000000
   C     29.90000000    79.64000000    31.92000000
   C     30.29000000    80.45000000    33.15000000
   C     29.21000000    81.46000000    33.51000000
   C     29.01000000    82.68000000    32.61000000
   N     30.29000000    83.40000000    32.51000000
   H     31.63000000    79.41000000    29.80000000
   H     31.19000000    78.00000000    32.31000000
   H     28.88000000    79.29000000    32.12000000
   H     29.80000000    80.39000000    31.14000000
   H     31.27000000    80.91000000    32.95000000
   H     30.37000000    79.83000000    34.04000000
   H     29.26000000    81.90000000    34.51000000
   H     28.26000000    80.94000000    33.43000000
   H     28.27000000    83.42000000    32.90000000
   H     28.67000000    82.29000000    31.65000000
   H     31.01000000    82.86000000    32.06000000
   H     30.19000000    84.25000000    31.98000000
   H     30.49000000    83.75000000    33.44000000
   N     29.49000000    76.43000000    31.17000000
   C     29.82000000    75.75000000    32.40000000
   C     29.52000000    76.57000000    33.64000000
   O     28.40000000    77.01000000    33.86000000
   C     31.18000000    75.05000000    32.30000000
   C     31.23000000    74.26000000    30.99000000
   O     32.24000000    74.30000000    30.26000000
   O     30.29000000    73.49000000    30.73000000
   H     28.97000000    75.88000000    30.50000000
   H     29.25000000    74.82000000    32.44000000
   H     31.30000000    74.36000000    33.13000000
   H     32.06000000    75.69000000    32.23000000
   N     30.42000000    76.92000000    34.57000000
   C     31.87000000    76.92000000    34.65000000
   C     32.53000000    75.69000000    35.24000000
   O     31.93000000    74.91000000    35.97000000
   H     30.05000000    77.46000000    35.34000000
   H     32.10000000    77.81000000    35.24000000
   H     32.26000000    77.16000000    33.67000000
   N     33.86000000    75.52000000    35.16000000
   C     34.62000000    75.75000000    33.95000000
   C     35.91000000    76.55000000    34.12000000
   O     36.73000000    76.41000000    35.02000000
   C     35.01000000    74.42000000    33.33000000
   C     35.11000000    74.44000000    31.81000000
   O     35.10000000    73.36000000    31.19000000
   O     35.21000000    75.55000000    31.24000000
   H     34.35000000    74.92000000    35.81000000
   H     34.03000000    76.36000000    33.27000000
   H     34.32000000    73.62000000    33.59000000
   H     36.00000000    74.11000000    33.66000000
   N     36.09000000    77.49000000    33.19000000
   C     37.32000000    78.21000000    32.92000000
   C     37.70000000    78.38000000    31.46000000
   O     36.86000000    78.51000000    30.57000000
   H     35.33000000    77.64000000    32.54000000
   H     38.12000000    77.73000000    33.48000000
   H     37.19000000    79.26000000    33.16000000
   N     38.98000000    78.22000000    31.11000000
   C     39.64000000    78.50000000    29.85000000
   C     38.99000000    77.84000000    28.64000000
   O     38.67000000    76.66000000    28.65000000
   C     41.11000000    78.11000000    29.83000000
   C     41.53000000    76.66000000    30.03000000
   O     41.80000000    78.94000000    30.75000000
   H     39.63000000    78.09000000    31.87000000
   H     39.52000000    79.57000000    29.68000000
   H     41.52000000    78.45000000    28.88000000
   H     41.33000000    78.74000000    31.56000000
   H     42.46000000    76.42000000    29.52000000
   H     41.64000000    76.48000000    31.10000000
   H     40.79000000    75.95000000    29.66000000
   N     38.73000000    78.56000000    27.54000000
   C     38.18000000    78.11000000    26.28000000
   C     39.32000000    77.66000000    25.38000000
   O     40.17000000    78.44000000    24.96000000
   C     37.38000000    79.19000000    25.56000000
   C     36.54000000    78.62000000    24.42000000
   C     38.20000000    80.39000000    25.12000000
   C     35.49000000    77.63000000    24.93000000
   H     38.95000000    79.54000000    27.67000000
   H     37.62000000    77.20000000    26.50000000
   H     36.66000000    79.52000000    26.31000000
   H     37.14000000    78.13000000    23.66000000
   H     36.06000000    79.48000000    23.95000000
   H     38.44000000    80.22000000    24.07000000
   H     37.54000000    81.25000000    24.98000000
   H     38.99000000    80.63000000    25.83000000
   H     35.99000000    76.80000000    25.42000000
   H     34.89000000    77.96000000    25.77000000
   H     34.95000000    77.15000000    24.10000000
   N     39.22000000    76.37000000    25.03000000
   C     40.14000000    75.77000000    24.09000000
   C     39.43000000    75.02000000    22.97000000
   O     40.06000000    74.68000000    21.97000000
   C     41.27000000    74.90000000    24.64000000
   C     40.93000000    73.79000000    25.62000000
   O     42.15000000    75.82000000    25.24000000
   H     38.41000000    75.84000000    25.30000000
   H     40.60000000    76.65000000    23.64000000
   H     41.79000000    74.44000000    23.79000000
   H     42.62000000    76.20000000    24.50000000
   H     41.86000000    73.30000000    25.91000000
   H     40.41000000    74.16000000    26.51000000
   H     40.20000000    73.13000000    25.15000000
   N     38.11000000    74.86000000    23.13000000
   C     37.20000000    74.17000000    22.24000000
   C     37.45000000    72.67000000    22.16000000
   O     38.53000000    72.18000000    22.47000000
   C     37.06000000    74.70000000    20.82000000
   C     36.97000000    76.22000000    20.83000000
   O     35.92000000    74.21000000    20.15000000
   H     37.83000000    75.00000000    24.09000000
   H     36.23000000    74.20000000    22.72000000
   H     37.84000000    74.39000000    20.13000000
   H     35.46000000    75.02000000    19.92000000
   H     36.79000000    76.53000000    19.80000000
   H     36.19000000    76.54000000    21.53000000
   H     37.90000000    76.58000000    21.27000000
   N     36.37000000    71.92000000    21.89000000
   C     36.41000000    70.48000000    21.73000000
   C     35.39000000    69.65000000    22.49000000
   O     35.63000000    68.46000000    22.65000000
   C     36.31000000    70.19000000    20.24000000
   C     37.60000000    70.61000000    19.55000000
   C     37.61000000    70.22000000    18.07000000
   C     38.91000000    70.58000000    17.37000000
   N     38.77000000    70.47000000    15.91000000
   H     35.56000000    72.47000000    21.62000000
   H     37.32000000    70.00000000    22.11000000
   H     35.47000000    70.76000000    19.83000000
   H     36.18000000    69.12000000    20.05000000
   H     38.43000000    70.03000000    19.95000000
   H     37.82000000    71.67000000    19.62000000
   H     36.76000000    70.73000000    17.61000000
   H     37.46000000    69.15000000    17.92000000
   H     39.81000000    70.09000000    17.73000000
   H     39.03000000    71.64000000    17.61000000
   H     38.91000000    69.51000000    15.60000000
   H     37.92000000    70.88000000    15.54000000
   H     39.52000000    70.96000000    15.43000000
   N     34.32000000    70.07000000    23.18000000
   C     33.54000000    71.28000000    23.33000000
   C     33.10000000    71.91000000    22.02000000
   O     33.36000000    73.07000000    21.71000000
   C     34.15000000    72.20000000    24.38000000
   C     33.13000000    73.26000000    24.79000000
   C     33.45000000    73.86000000    26.15000000
   O     34.64000000    74.08000000    26.46000000
   O     32.54000000    74.14000000    26.96000000
   H     34.01000000    69.21000000    23.61000000
   H     32.60000000    70.96000000    23.78000000
   H     35.09000000    72.70000000    24.13000000
   H     34.42000000    71.61000000    25.26000000
   H     32.09000000    72.95000000    24.80000000
   H     33.19000000    74.02000000    24.01000000
   N     32.48000000    71.12000000    21.14000000
   C     32.02000000    71.52000000    19.82000000
   H     31.14900000    72.16800000    19.92000000
   H     32.81600000    72.05900000    19.30500000
   H     31.74900000    70.63400000    19.24500000
   H     32.33000000    70.14000000    21.34000000
  Ca     34.31000000    74.68000000    28.93000000
   O     32.40000000    76.68000000    28.52000000
   H     31.48000000    76.40000000    28.49000000
   H     32.36000000    77.62000000    28.32000000
   O     36.85000000    74.50000000    28.63000000
   H     37.22000000    75.37000000    28.46000000
   H     37.36000000    73.92000000    28.06000000
   O     33.92000000    71.80000000    28.57000000
   H     33.11000000    71.31000000    28.74000000
   H     34.59000000    71.12000000    28.46000000
   O     35.47000000    77.09000000    28.23000000
   H     34.82000000    77.73000000    27.96000000
   H     36.03000000    77.56000000    28.85000000

Ca 1.00



