%chk=loop4.apoCaM-CA-Ng.Init31.run84.water4.chk
%nprocshared=20
%mem=10GB
%nosave
#b3lyp/svp scf=(tight,noincore,xqc) Test 
#IOP(5/87=12) Density=Current Pop=(MK,readradii) iop(6/33=2) iop(6/42=6)

loop4.apoCaM-CA-Ng.Init31.run84.water4 

   -3  1 
   C     75.77000000    56.43000000    36.34000000
   C     76.92000000    57.24000000    35.77000000
   O     76.88000000    57.49000000    34.56000000
   H     74.89700000    56.53800000    35.69700000
   H     76.05500000    55.37900000    36.39100000
   H     75.53100000    56.79100000    37.34000000
   N     77.96000000    57.76000000    36.43000000
   C     78.49000000    57.61000000    37.77000000
   C     77.82000000    58.50000000    38.80000000
   O     77.41000000    57.94000000    39.82000000
   C     80.02000000    57.60000000    37.78000000
   C     80.74000000    57.33000000    39.09000000
   O     81.44000000    58.20000000    39.66000000
   O     80.52000000    56.25000000    39.69000000
   H     78.46000000    58.46000000    35.90000000
   H     78.26000000    56.58000000    38.05000000
   H     80.25000000    58.62000000    37.49000000
   H     80.28000000    56.95000000    36.95000000
   N     77.47000000    59.74000000    38.46000000
   C     76.44000000    60.52000000    39.11000000
   C     76.80000000    62.00000000    39.14000000
   O     76.26000000    62.83000000    39.88000000
   C     75.12000000    60.25000000    38.38000000
   C     73.91000000    60.89000000    39.06000000
   C     75.27000000    60.65000000    36.92000000
   C     72.57000000    60.31000000    38.60000000
   H     77.74000000    60.03000000    37.53000000
   H     76.31000000    60.25000000    40.16000000
   H     74.95000000    59.17000000    38.48000000
   H     73.99000000    61.93000000    38.77000000
   H     74.06000000    60.89000000    40.14000000
   H     74.33000000    60.34000000    36.45000000
   H     75.51000000    61.70000000    36.77000000
   H     75.96000000    60.06000000    36.31000000
   H     72.59000000    59.28000000    38.94000000
   H     71.76000000    60.91000000    39.02000000
   H     72.40000000    60.31000000    37.52000000
   N     77.68000000    62.51000000    38.28000000
   C     77.95000000    63.93000000    38.14000000
   C     79.03000000    64.44000000    39.09000000
   O     79.29000000    65.64000000    39.07000000
   C     78.44000000    64.07000000    36.70000000
   C     78.12000000    65.43000000    36.11000000
   O     76.96000000    65.92000000    36.12000000
   O     79.00000000    66.20000000    35.69000000
   H     78.24000000    61.88000000    37.73000000
   H     77.15000000    64.65000000    38.30000000
   H     77.93000000    63.35000000    36.06000000
   H     79.49000000    63.83000000    36.54000000
   N     79.73000000    63.54000000    39.77000000
   C     80.88000000    63.84000000    40.61000000
   C     82.14000000    63.96000000    39.77000000
   O     82.32000000    63.29000000    38.75000000
   H     79.44000000    62.57000000    39.70000000
   H     81.08000000    63.09000000    41.38000000
   H     80.68000000    64.82000000    41.03000000
   N     83.04000000    64.86000000    40.17000000
   C     84.31000000    65.12000000    39.52000000
   C     84.49000000    66.63000000    39.43000000
   O     83.97000000    67.39000000    40.24000000
   C     85.46000000    64.40000000    40.22000000
   C     85.56000000    64.51000000    41.73000000
   O     86.18000000    65.46000000    42.25000000
   O     85.05000000    63.64000000    42.47000000
   H     82.88000000    65.37000000    41.03000000
   H     84.17000000    64.82000000    38.48000000
   H     86.39000000    64.60000000    39.69000000
   H     85.44000000    63.33000000    40.06000000
   N     84.98000000    67.12000000    38.29000000
   C     85.77000000    66.43000000    37.28000000
   C     86.63000000    67.36000000    36.44000000
   O     86.06000000    68.31000000    35.90000000
   H     85.14000000    68.11000000    38.40000000
   H     85.09000000    65.94000000    36.59000000
   H     86.37000000    65.74000000    37.88000000
   N     87.88000000    67.03000000    36.11000000
   C     88.77000000    65.94000000    36.44000000
   C     88.26000000    64.52000000    36.19000000
   O     87.10000000    64.19000000    35.96000000
   C     89.26000000    66.00000000    37.88000000
   C     90.63000000    66.65000000    38.03000000
   C     91.83000000    65.85000000    37.53000000
   N     93.02000000    66.46000000    37.50000000
   O     91.78000000    64.67000000    37.20000000
   H     88.25000000    67.67000000    35.42000000
   H     89.70000000    65.99000000    35.87000000
   H     89.33000000    65.01000000    38.33000000
   H     88.59000000    66.66000000    38.43000000
   H     90.77000000    66.80000000    39.10000000
   H     90.61000000    67.65000000    37.59000000
   H     93.18000000    67.37000000    37.90000000
   H     93.80000000    65.82000000    37.47000000
   N     89.21000000    63.58000000    36.20000000
   C     89.12000000    62.16000000    35.92000000
   C     90.39000000    61.71000000    35.20000000
   O     91.46000000    62.26000000    35.42000000
   C     89.03000000    61.35000000    37.21000000
   C     87.66000000    61.42000000    37.87000000
   C     90.15000000    61.61000000    38.21000000
   H     90.16000000    63.86000000    36.36000000
   H     88.32000000    61.98000000    35.20000000
   H     89.11000000    60.30000000    36.92000000
   H     87.47000000    60.56000000    38.51000000
   H     87.48000000    62.31000000    38.47000000
   H     86.78000000    61.40000000    37.22000000
   H     89.82000000    60.94000000    39.00000000
   H     91.11000000    61.37000000    37.74000000
   H     90.07000000    62.65000000    38.54000000
   N     90.24000000    60.66000000    34.39000000
   C     91.32000000    59.88000000    33.80000000
   C     91.54000000    58.52000000    34.45000000
   O     92.45000000    57.76000000    34.10000000
   C     91.18000000    59.69000000    32.30000000
   C     91.09000000    61.00000000    31.54000000
   N     92.17000000    61.67000000    31.13000000
   O     89.97000000    61.50000000    31.40000000
   H     89.35000000    60.22000000    34.22000000
   H     92.28000000    60.36000000    33.98000000
   H     90.19000000    59.23000000    32.19000000
   H     91.93000000    59.04000000    31.86000000
   H     93.03000000    61.18000000    31.29000000
   H     92.02000000    62.42000000    30.47000000
   N     90.75000000    58.20000000    35.48000000
   C     90.75000000    56.88000000    36.09000000
   C     89.41000000    56.55000000    36.74000000
   O     88.64000000    57.50000000    36.91000000
   C     91.91000000    56.82000000    37.07000000
   C     92.17000000    55.39000000    37.49000000
   C     92.85000000    54.57000000    36.59000000
   C     92.09000000    54.99000000    38.83000000
   C     93.27000000    53.27000000    36.90000000
   C     92.64000000    53.76000000    39.23000000
   C     93.22000000    52.92000000    38.26000000
   O     93.51000000    51.64000000    38.62000000
   H     89.99000000    58.82000000    35.71000000
   H     90.99000000    56.12000000    35.34000000
   H     91.67000000    57.50000000    37.88000000
   H     92.84000000    57.24000000    36.70000000
   H     92.94000000    54.97000000    35.59000000
   H     91.47000000    55.57000000    39.51000000
   H     93.69000000    52.54000000    36.22000000
   H     92.42000000    53.38000000    40.21000000
   H     93.79000000    51.09000000    37.88000000
   N     89.27000000    55.34000000    37.28000000
   C     88.20000000    54.71000000    38.02000000
   C     87.08000000    54.54000000    37.00000000
   O     87.31000000    53.98000000    35.93000000
   C     88.71000000    53.42000000    38.66000000
   C     87.59000000    52.80000000    39.49000000
   C     88.02000000    51.63000000    40.38000000
   O     88.28000000    51.90000000    41.57000000
   O     88.01000000    50.45000000    39.97000000
   H     89.89000000    54.65000000    36.89000000
   H     87.93000000    55.31000000    38.89000000
   H     89.56000000    53.62000000    39.32000000
   H     89.11000000    52.70000000    37.95000000
   H     86.89000000    52.43000000    38.74000000
   H     87.16000000    53.49000000    40.22000000
   N     85.87000000    55.01000000    37.33000000
   C     84.61000000    54.87000000    36.63000000
   C     84.50000000    55.75000000    35.40000000
   O     83.55000000    56.53000000    35.30000000
   C     83.37000000    54.80000000    37.52000000
   C     83.38000000    53.58000000    38.43000000
   C     82.20000000    53.58000000    39.39000000
   O     81.05000000    53.25000000    39.04000000
   O     82.37000000    53.80000000    40.61000000
   H     85.88000000    55.46000000    38.23000000
   H     84.55000000    53.83000000    36.29000000
   H     82.47000000    54.61000000    36.93000000
   H     83.34000000    55.75000000    38.06000000
   H     84.26000000    53.64000000    39.08000000
   H     83.38000000    52.66000000    37.85000000
   N     85.47000000    55.70000000    34.48000000
   C     85.64000000    56.57000000    33.34000000
   H     86.68600000    56.56600000    33.03300000
   H     85.01900000    56.21700000    32.51700000
   H     85.34500000    57.58400000    33.60900000
   H     86.29000000    55.14000000    34.69000000
  Ca     79.63000000    54.15000000    40.96000000
   O     78.22000000    56.26000000    41.83000000
   H     77.74000000    56.40000000    42.64000000
   H     77.93000000    56.97000000    41.25000000
   O     81.11000000    55.19000000    42.91000000
   H     80.65000000    55.50000000    43.69000000
   H     81.92000000    54.80000000    43.24000000
   O     80.61000000    51.67000000    41.77000000
   H     81.56000000    51.62000000    41.91000000
   H     80.24000000    51.05000000    42.40000000
   O     78.35000000    53.77000000    43.46000000
   H     77.41000000    53.60000000    43.40000000
   H     78.57000000    53.58000000    44.37000000

Ca 1.00



