%chk=loop3.holoCaM.run50.water2.chk
%nprocshared=20
%mem=10GB
%nosave
#b3lyp/svp scf=(tight,noincore,xqc) Test 
#IOP(5/87=12) Density=Current Pop=(MK,readradii) iop(6/33=2) iop(6/42=6)

loop3.holoCaM.run50.water2 

   0  1 
   C     82.91000000    62.77000000    12.34300000
   C     83.77000000    63.50000000    13.37300000
   O     84.51000000    62.86000000    14.12300000
   H     82.00800000    63.35000000    12.14700000
   H     83.47300000    62.65100000    11.41700000
   H     82.63300000    61.78900000    12.72900000
   N     83.85000000    64.82000000    13.52300000
   C     84.64000000    65.55000000    14.50300000
   C     83.80000000    65.58000000    15.78300000
   O     82.97000000    66.47000000    15.98300000
   C     84.97000000    66.95000000    13.99300000
   C     85.80000000    67.78000000    14.96300000
   O     86.06000000    68.93000000    14.55300000
   O     86.21000000    67.26000000    16.02300000
   H     83.35000000    65.43000000    12.89300000
   H     85.60000000    65.09000000    14.75300000
   H     84.14000000    67.49000000    13.55300000
   H     85.58000000    66.94000000    13.09300000
   N     84.03000000    64.52000000    16.55300000
   C     83.13000000    64.24000000    17.66300000
   C     83.20000000    65.24000000    18.80300000
   O     82.19000000    65.66000000    19.35300000
   C     83.46000000    62.87000000    18.24300000
   C     83.31000000    61.68000000    17.29300000
   C     82.11000000    61.51000000    16.37300000
   C     80.78000000    61.60000000    17.11300000
   N     79.74000000    62.00000000    16.16300000
   H     84.75000000    63.87000000    16.30300000
   H     82.10000000    64.14000000    17.34300000
   H     82.73000000    62.70000000    19.04300000
   H     84.48000000    62.84000000    18.63300000
   H     83.29000000    60.83000000    17.96300000
   H     84.19000000    61.67000000    16.64300000
   H     82.23000000    60.59000000    15.80300000
   H     82.26000000    62.28000000    15.61300000
   H     80.88000000    62.37000000    17.87300000
   H     80.54000000    60.63000000    17.56300000
   H     79.59000000    62.99000000    16.22300000
   H     79.92000000    61.84000000    15.18300000
   H     78.85000000    61.57000000    16.39300000
   N     84.41000000    65.71000000    19.11300000
   C     84.63000000    66.79000000    20.05300000
   C     84.52000000    68.21000000    19.52300000
   O     84.47000000    69.14000000    20.32300000
   C     86.01000000    66.72000000    20.70300000
   C     87.12000000    66.51000000    19.68300000
   O     87.14000000    65.46000000    19.01300000
   O     88.03000000    67.36000000    19.57300000
   H     85.14000000    65.38000000    18.50300000
   H     83.99000000    66.72000000    20.93300000
   H     85.96000000    65.81000000    21.31300000
   H     86.14000000    67.59000000    21.34300000
   N     84.28000000    68.39000000    18.21300000
   C     84.02000000    69.64000000    17.53300000
   C     85.13000000    70.64000000    17.78300000
   O     84.95000000    71.58000000    18.55300000
   H     84.23000000    67.49000000    17.76300000
   H     83.09000000    70.07000000    17.90300000
   H     84.06000000    69.52000000    16.44300000
   N     86.21000000    70.58000000    17.00300000
   C     87.34000000    71.48000000    17.09300000
   C     88.02000000    71.80000000    15.77300000
   O     89.08000000    72.43000000    15.79300000
   C     88.27000000    71.08000000    18.23300000
   C     89.25000000    69.97000000    17.87300000
   N     90.53000000    70.06000000    18.24300000
   O     88.90000000    68.96000000    17.27300000
   H     86.25000000    69.89000000    16.26300000
   H     86.84000000    72.41000000    17.38300000
   H     87.75000000    70.72000000    19.11300000
   H     88.83000000    71.95000000    18.58300000
   H     90.88000000    70.95000000    18.56300000
   H     91.18000000    69.30000000    18.12300000
   N     87.38000000    71.49000000    14.64300000
   C     87.67000000    71.59000000    13.22300000
   C     88.83000000    70.73000000    12.73300000
   O     89.44000000    71.06000000    11.72300000
   H     86.42000000    71.23000000    14.81300000
   H     87.86000000    72.64000000    12.99300000
   H     86.76000000    71.20000000    12.76300000
   N     88.97000000    69.58000000    13.38300000
   C     89.97000000    68.60000000    13.00300000
   C     89.46000000    67.22000000    13.39300000
   O     88.85000000    66.98000000    14.43300000
   C     91.25000000    68.87000000    13.80300000
   C     91.97000000    70.19000000    13.67300000
   C     91.53000000    71.21000000    14.51300000
   C     92.89000000    70.41000000    12.63300000
   C     92.30000000    72.39000000    14.50300000
   C     93.55000000    71.64000000    12.58300000
   C     93.27000000    72.66000000    13.52300000
   O     93.97000000    73.83000000    13.62300000
   H     88.23000000    69.34000000    14.03300000
   H     90.19000000    68.62000000    11.94300000
   H     91.92000000    68.08000000    13.46300000
   H     91.05000000    68.75000000    14.87300000
   H     90.89000000    71.00000000    15.35300000
   H     93.18000000    69.65000000    11.92300000
   H     92.19000000    73.02000000    15.36300000
   H     94.23000000    71.80000000    11.76300000
   H     94.85000000    73.75000000    13.24300000
   N     89.78000000    66.28000000    12.50300000
   C     89.51000000    64.86000000    12.63300000
   C     90.81000000    64.08000000    12.77300000
   O     91.50000000    63.86000000    11.78300000
   C     88.65000000    64.36000000    11.47300000
   C     87.29000000    65.06000000    11.39300000
   C     88.35000000    62.86000000    11.53300000
   C     86.55000000    64.86000000    10.08300000
   H     90.33000000    66.55000000    11.70300000
   H     88.93000000    64.68000000    13.53300000
   H     89.14000000    64.49000000    10.51300000
   H     87.58000000    66.10000000    11.53300000
   H     86.62000000    64.82000000    12.22300000
   H     89.25000000    62.25000000    11.47300000
   H     87.91000000    62.69000000    12.52300000
   H     87.64000000    62.47000000    10.81300000
   H     85.59000000    65.39000000    10.02300000
   H     87.16000000    65.18000000     9.23300000
   H     86.41000000    63.80000000     9.88300000
   N     91.13000000    63.74000000    14.02300000
   C     92.29000000    62.97000000    14.45300000
   C     92.13000000    61.50000000    14.11300000
   O     91.04000000    61.09000000    13.69300000
   C     92.38000000    63.19000000    15.95300000
   O     91.27000000    62.72000000    16.68300000
   H     90.45000000    63.87000000    14.75300000
   H     93.15000000    63.32000000    13.87300000
   H     92.55000000    64.23000000    16.22300000
   H     93.23000000    62.56000000    16.23300000
   H     90.56000000    63.31000000    16.43300000
   N     93.12000000    60.66000000    14.41300000
   C     93.16000000    59.27000000    13.99300000
   C     92.14000000    58.40000000    14.71300000
   O     91.45000000    57.62000000    14.07300000
   C     94.53000000    58.67000000    14.28300000
   H     93.95000000    61.13000000    14.74300000
   H     92.89000000    59.21000000    12.94300000
   H     94.52000000    57.58000000    14.25300000
   H     95.20000000    59.11000000    13.55300000
   H     94.84000000    58.86000000    15.31300000
   N     91.93000000    58.69000000    16.00300000
   C     90.83000000    58.22000000    16.82300000
   C     89.44000000    58.41000000    16.23300000
   O     88.59000000    57.54000000    16.42300000
   C     91.02000000    58.81000000    18.22300000
   H     92.58000000    59.34000000    16.41300000
   H     91.00000000    57.16000000    17.00300000
   H     90.91000000    59.90000000    18.28300000
   H     90.31000000    58.44000000    18.96300000
   H     92.02000000    58.60000000    18.61300000
   N     89.30000000    59.46000000    15.43300000
   C     88.04000000    59.78000000    14.77300000
   C     88.04000000    59.25000000    13.35300000
   O     86.97000000    58.90000000    12.83300000
   C     87.89000000    61.29000000    14.81300000
   C     87.70000000    61.85000000    16.22300000
   C     87.90000000    63.36000000    16.25300000
   O     86.94000000    64.10000000    16.54300000
   O     89.02000000    63.89000000    16.07300000
   H     90.12000000    60.01000000    15.21300000
   H     87.18000000    59.32000000    15.26300000
   H     87.10000000    61.66000000    14.14300000
   H     88.86000000    61.68000000    14.52300000
   H     88.41000000    61.36000000    16.88300000
   H     86.70000000    61.57000000    16.56300000
   N     89.16000000    59.14000000    12.64300000
   C     89.26000000    58.40000000    11.40300000
   H     90.31000000    58.27100000    11.14100000
   H     88.79400000    57.42200000    11.52400000
   H     88.75300000    58.94900000    10.61000000
   H     90.00000000    59.59000000    12.99300000
  Ca     88.54000000    66.30000000    16.97000000
   O     91.24000000    66.33000000    16.36000000
   H     91.59000000    66.25000000    17.25000000
   H     91.97000000    66.68000000    15.85000000
   O     90.31000000    65.70000000    19.04000000
   H     89.71000000    65.34000000    19.70000000
   H     91.02000000    66.09000000    19.54000000

Ca 1.00



