%chk=loop3.apoCaM-CA-Ng.Init293.run62.water5.chk
%nprocshared=20
%mem=10GB
%nosave
#b3lyp/svp scf=(tight,noincore,xqc) Test 
#IOP(5/87=12) Density=Current Pop=(MK,readradii) iop(6/33=2) iop(6/42=6)

loop3.apoCaM-CA-Ng.Init293.run62.water5 

   0  1 
   C     51.99000000    72.57000000    46.21000000
   C     51.31000000    71.97000000    44.99000000
   O     51.82000000    72.19000000    43.89000000
   H     52.89100000    73.09900000    45.90000000
   H     51.31000000    73.26800000    46.69900000
   H     52.25800000    71.77500000    46.90500000
   N     50.19000000    71.27000000    45.20000000
   C     49.42000000    70.61000000    44.17000000
   C     48.92000000    69.32000000    44.80000000
   O     48.61000000    69.28000000    45.98000000
   C     48.27000000    71.50000000    43.71000000
   C     47.53000000    71.15000000    42.43000000
   O     46.39000000    71.64000000    42.26000000
   O     48.18000000    70.46000000    41.61000000
   H     49.82000000    71.24000000    46.13000000
   H     50.10000000    70.32000000    43.37000000
   H     48.65000000    72.51000000    43.58000000
   H     47.59000000    71.37000000    44.56000000
   N     48.61000000    68.35000000    43.94000000
   C     48.00000000    67.05000000    44.15000000
   C     46.53000000    67.22000000    44.50000000
   O     46.03000000    68.29000000    44.84000000
   C     48.88000000    66.23000000    45.09000000
   C     48.77000000    64.75000000    44.72000000
   C     49.32000000    63.89000000    45.84000000
   C     48.46000000    64.03000000    47.10000000
   N     47.21000000    63.28000000    46.93000000
   H     48.75000000    68.56000000    42.96000000
   H     47.99000000    66.58000000    43.16000000
   H     48.66000000    66.40000000    46.14000000
   H     49.92000000    66.46000000    44.84000000
   H     49.27000000    64.68000000    43.75000000
   H     47.74000000    64.40000000    44.72000000
   H     50.31000000    64.22000000    46.14000000
   H     49.32000000    62.82000000    45.61000000
   H     48.23000000    65.09000000    47.25000000
   H     49.03000000    63.67000000    47.95000000
   H     46.63000000    63.81000000    46.30000000
   H     47.25000000    62.32000000    46.61000000
   H     46.76000000    63.19000000    47.83000000
   N     45.73000000    66.16000000    44.40000000
   C     44.41000000    66.06000000    44.99000000
   C     44.56000000    65.91000000    46.49000000
   O     45.62000000    65.49000000    46.95000000
   C     43.58000000    64.87000000    44.51000000
   C     44.34000000    63.58000000    44.27000000
   O     44.98000000    63.11000000    45.24000000
   O     44.08000000    62.91000000    43.24000000
   H     46.15000000    65.43000000    43.83000000
   H     43.82000000    66.92000000    44.69000000
   H     43.13000000    65.12000000    43.55000000
   H     42.71000000    64.70000000    45.15000000
   N     43.61000000    66.25000000    47.37000000
   C     43.71000000    66.36000000    48.81000000
   C     42.43000000    67.00000000    49.33000000
   O     42.31000000    68.20000000    49.53000000
   H     42.70000000    66.41000000    46.94000000
   H     44.50000000    67.09000000    48.94000000
   H     43.86000000    65.33000000    49.13000000
   N     41.37000000    66.20000000    49.47000000
   C     40.07000000    66.59000000    49.98000000
   C     40.12000000    66.73000000    51.50000000
   O     40.48000000    65.76000000    52.17000000
   C     39.03000000    65.66000000    49.35000000
   C     38.98000000    65.63000000    47.83000000
   N     39.15000000    64.51000000    47.12000000
   O     38.88000000    66.66000000    47.17000000
   H     41.62000000    65.24000000    49.26000000
   H     39.88000000    67.59000000    49.61000000
   H     38.05000000    65.87000000    49.77000000
   H     39.37000000    64.65000000    49.60000000
   H     39.32000000    63.63000000    47.60000000
   H     39.06000000    64.60000000    46.12000000
   N     39.74000000    67.90000000    52.03000000
   C     39.55000000    68.10000000    53.45000000
   C     40.69000000    67.66000000    54.35000000
   O     41.88000000    67.83000000    54.08000000
   H     39.62000000    68.70000000    51.43000000
   H     38.60000000    67.63000000    53.73000000
   H     39.32000000    69.14000000    53.67000000
   N     40.19000000    67.02000000    55.41000000
   C     40.93000000    66.29000000    56.42000000
   C     42.12000000    65.43000000    56.02000000
   O     42.88000000    65.00000000    56.89000000
   C     41.29000000    67.31000000    57.50000000
   C     40.16000000    67.81000000    58.38000000
   C     39.42000000    68.95000000    58.03000000
   C     39.82000000    67.06000000    59.51000000
   C     38.28000000    69.28000000    58.76000000
   C     38.77000000    67.45000000    60.36000000
   C     38.00000000    68.55000000    59.94000000
   O     36.90000000    68.78000000    60.72000000
   H     39.19000000    66.94000000    55.54000000
   H     40.26000000    65.55000000    56.86000000
   H     41.81000000    68.13000000    57.02000000
   H     41.99000000    66.83000000    58.19000000
   H     39.68000000    69.45000000    57.12000000
   H     40.34000000    66.16000000    59.80000000
   H     37.60000000    70.10000000    58.60000000
   H     38.55000000    66.82000000    61.20000000
   H     36.90000000    68.26000000    61.53000000
   N     42.26000000    65.12000000    54.73000000
   C     43.24000000    64.23000000    54.15000000
   C     43.17000000    62.75000000    54.47000000
   O     43.49000000    61.90000000    53.63000000
   C     44.63000000    64.86000000    54.18000000
   C     44.70000000    66.32000000    53.76000000
   C     45.60000000    63.99000000    53.37000000
   C     44.33000000    66.73000000    52.33000000
   H     41.66000000    65.63000000    54.10000000
   H     42.91000000    64.28000000    53.11000000
   H     44.92000000    64.86000000    55.23000000
   H     45.76000000    66.53000000    53.89000000
   H     44.11000000    66.95000000    54.42000000
   H     45.08000000    63.82000000    52.42000000
   H     46.60000000    64.43000000    53.39000000
   H     45.72000000    63.01000000    53.82000000
   H     45.05000000    66.35000000    51.61000000
   H     43.36000000    66.32000000    52.04000000
   H     44.16000000    67.81000000    52.32000000
   N     42.72000000    62.36000000    55.66000000
   C     42.65000000    60.97000000    56.05000000
   C     43.96000000    60.20000000    55.99000000
   O     44.00000000    59.01000000    55.70000000
   C     42.19000000    60.86000000    57.50000000
   O     43.02000000    61.67000000    58.32000000
   H     42.68000000    63.02000000    56.43000000
   H     41.97000000    60.43000000    55.39000000
   H     42.19000000    59.84000000    57.88000000
   H     41.21000000    61.32000000    57.65000000
   H     42.54000000    61.63000000    59.15000000
   N     45.08000000    60.88000000    56.28000000
   C     46.44000000    60.45000000    56.05000000
   C     46.75000000    59.76000000    54.73000000
   O     47.62000000    58.88000000    54.67000000
   C     46.96000000    59.77000000    57.31000000
   H     44.86000000    61.76000000    56.73000000
   H     47.17000000    61.26000000    56.04000000
   H     48.03000000    59.96000000    57.36000000
   H     46.63000000    60.32000000    58.20000000
   H     46.67000000    58.72000000    57.34000000
   N     46.05000000    60.13000000    53.66000000
   C     46.20000000    59.49000000    52.37000000
   C     47.28000000    60.13000000    51.50000000
   O     47.46000000    61.34000000    51.42000000
   C     44.82000000    59.55000000    51.72000000
   H     45.29000000    60.78000000    53.78000000
   H     46.52000000    58.46000000    52.53000000
   H     44.63000000    60.61000000    51.54000000
   H     44.67000000    58.93000000    50.84000000
   H     44.03000000    59.22000000    52.40000000
   N     48.09000000    59.26000000    50.88000000
   C     48.99000000    59.54000000    49.78000000
   C     50.12000000    60.50000000    50.12000000
   O     50.69000000    61.14000000    49.24000000
   C     48.21000000    59.99000000    48.55000000
   C     47.11000000    59.02000000    48.15000000
   C     46.51000000    59.54000000    46.85000000
   O     46.81000000    60.61000000    46.28000000
   O     45.67000000    58.85000000    46.23000000
   H     47.81000000    58.30000000    50.97000000
   H     49.48000000    58.63000000    49.43000000
   H     48.81000000    60.24000000    47.68000000
   H     47.62000000    60.88000000    48.79000000
   H     46.31000000    58.96000000    48.88000000
   H     47.52000000    58.03000000    47.94000000
   N     50.47000000    60.60000000    51.40000000
   C     51.33000000    61.60000000    51.99000000
   H     52.23700000    61.69600000    51.39400000
   H     50.81000000    62.55800000    52.01600000
   H     51.59300000    61.30100000    53.00500000
   H     49.98000000    59.96000000    52.02000000
  Ca     45.44000000    60.55000000    44.15000000
   O     44.08000000    58.47000000    43.24000000
   H     43.13000000    58.40000000    43.10000000
   H     44.44000000    57.70000000    42.81000000
   O     47.59000000    62.03000000    43.05000000
   H     48.37000000    61.89000000    42.52000000
   H     47.29000000    62.91000000    42.80000000
   O     45.25000000    60.35000000    41.42000000
   H     45.58000000    59.56000000    41.00000000
   H     44.41000000    60.52000000    40.99000000
   O     47.44000000    58.81000000    43.48000000
   H     47.57000000    57.88000000    43.27000000
   H     48.22000000    59.24000000    43.12000000
   O     43.05000000    60.53000000    45.23000000
   H     42.33000000    61.15000000    45.37000000
   H     42.76000000    59.72000000    45.65000000

Ca 1.00



