%chk=loop4.apoCaM-CA-Ng.Init31.run90.water3.chk
%nprocshared=20
%mem=10GB
%nosave
#b3lyp/svp scf=(tight,noincore,xqc) Test 
#IOP(5/87=12) Density=Current Pop=(MK,readradii) iop(6/33=2) iop(6/42=6)

loop4.apoCaM-CA-Ng.Init31.run90.water3 

   -3  1 
   C     69.97000000    52.04000000    58.22000000
   C     70.34000000    53.08000000    57.16000000
   O     69.48000000    53.91000000    56.87000000
   H     68.95500000    51.68500000    58.04100000
   H     70.66300000    51.20100000    58.16400000
   H     70.02700000    52.49300000    59.21000000
   N     71.47000000    53.14000000    56.45000000
   C     72.75000000    52.48000000    56.63000000
   C     73.66000000    53.21000000    57.61000000
   O     74.52000000    52.63000000    58.26000000
   C     73.47000000    52.44000000    55.29000000
   C     74.80000000    51.70000000    55.32000000
   O     75.84000000    52.18000000    54.82000000
   O     74.73000000    50.58000000    55.87000000
   H     71.42000000    53.76000000    55.65000000
   H     72.57000000    51.47000000    56.99000000
   H     73.64000000    53.45000000    54.93000000
   H     72.88000000    51.92000000    54.53000000
   N     73.48000000    54.53000000    57.76000000
   C     73.78000000    55.32000000    58.93000000
   C     74.61000000    56.56000000    58.59000000
   O     75.50000000    56.94000000    59.34000000
   C     72.52000000    55.67000000    59.72000000
   C     72.75000000    56.51000000    60.97000000
   C     71.48000000    56.31000000    58.81000000
   C     71.51000000    56.66000000    61.84000000
   H     72.74000000    54.91000000    57.19000000
   H     74.40000000    54.61000000    59.48000000
   H     72.18000000    54.70000000    60.07000000
   H     73.09000000    57.53000000    60.80000000
   H     73.50000000    56.03000000    61.60000000
   H     70.56000000    56.43000000    59.39000000
   H     71.74000000    57.29000000    58.40000000
   H     71.26000000    55.70000000    57.94000000
   H     71.68000000    57.18000000    62.79000000
   H     70.70000000    57.15000000    61.31000000
   H     71.08000000    55.69000000    62.09000000
   N     74.23000000    57.14000000    57.45000000
   C     74.72000000    58.48000000    57.22000000
   C     76.22000000    58.55000000    56.97000000
   O     77.02000000    59.09000000    57.73000000
   C     73.86000000    59.29000000    56.26000000
   C     74.02000000    60.80000000    56.42000000
   O     73.24000000    61.40000000    57.19000000
   O     74.91000000    61.38000000    55.77000000
   H     73.57000000    56.71000000    56.81000000
   H     74.63000000    59.02000000    58.16000000
   H     72.81000000    59.04000000    56.42000000
   H     73.93000000    59.01000000    55.21000000
   N     76.66000000    57.89000000    55.89000000
   C     78.07000000    57.77000000    55.58000000
   C     78.30000000    58.44000000    54.23000000
   O     77.41000000    59.02000000    53.61000000
   H     76.04000000    57.27000000    55.39000000
   H     78.41000000    56.74000000    55.55000000
   H     78.56000000    58.36000000    56.35000000
   N     79.51000000    58.21000000    53.72000000
   C     79.99000000    58.73000000    52.45000000
   C     80.27000000    60.22000000    52.51000000
   O     80.52000000    60.84000000    53.54000000
   C     81.12000000    57.82000000    51.99000000
   C     82.36000000    57.75000000    52.87000000
   O     83.42000000    57.22000000    52.47000000
   O     82.35000000    58.33000000    53.97000000
   H     80.03000000    57.58000000    54.31000000
   H     79.19000000    58.63000000    51.72000000
   H     81.54000000    58.28000000    51.09000000
   H     80.64000000    56.85000000    51.86000000
   N     80.35000000    61.03000000    51.45000000
   C     80.16000000    60.56000000    50.09000000
   C     80.79000000    61.53000000    49.10000000
   O     80.99000000    62.71000000    49.37000000
   H     80.45000000    61.98000000    51.76000000
   H     79.08000000    60.62000000    49.97000000
   H     80.40000000    59.52000000    49.87000000
   N     81.17000000    61.07000000    47.90000000
   C     81.08000000    59.80000000    47.22000000
   C     79.69000000    59.17000000    47.28000000
   O     78.66000000    59.80000000    47.53000000
   C     82.24000000    58.88000000    47.59000000
   C     83.50000000    59.35000000    46.88000000
   C     83.98000000    60.74000000    47.28000000
   N     84.24000000    60.97000000    48.57000000
   O     84.16000000    61.62000000    46.45000000
   H     81.60000000    61.83000000    47.39000000
   H     81.18000000    60.19000000    46.21000000
   H     82.00000000    57.85000000    47.30000000
   H     82.35000000    58.83000000    48.67000000
   H     83.24000000    59.25000000    45.83000000
   H     84.25000000    58.60000000    47.15000000
   H     83.98000000    60.38000000    49.35000000
   H     84.75000000    61.82000000    48.79000000
   N     79.61000000    57.87000000    46.98000000
   C     78.51000000    56.93000000    46.91000000
   C     78.85000000    55.72000000    46.05000000
   O     79.99000000    55.52000000    45.64000000
   C     78.20000000    56.39000000    48.30000000
   C     77.77000000    57.34000000    49.41000000
   C     79.40000000    55.58000000    48.78000000
   H     80.45000000    57.43000000    46.63000000
   H     77.60000000    57.46000000    46.63000000
   H     77.36000000    55.69000000    48.29000000
   H     77.02000000    57.98000000    48.94000000
   H     77.33000000    56.76000000    50.22000000
   H     78.62000000    57.96000000    49.69000000
   H     79.43000000    54.62000000    48.26000000
   H     80.35000000    56.10000000    48.67000000
   H     79.37000000    55.46000000    49.86000000
   N     77.91000000    54.79000000    45.83000000
   C     78.15000000    53.68000000    44.93000000
   C     79.04000000    52.57000000    45.47000000
   O     79.42000000    51.66000000    44.74000000
   C     76.78000000    53.14000000    44.51000000
   C     76.83000000    52.22000000    43.30000000
   N     77.59000000    52.60000000    42.27000000
   O     76.36000000    51.09000000    43.25000000
   H     77.01000000    54.93000000    46.26000000
   H     78.71000000    54.04000000    44.07000000
   H     76.10000000    53.95000000    44.24000000
   H     76.32000000    52.69000000    45.39000000
   H     77.87000000    53.55000000    42.10000000
   H     77.57000000    51.96000000    41.49000000
   N     79.28000000    52.55000000    46.79000000
   C     80.08000000    51.54000000    47.45000000
   C     79.43000000    51.22000000    48.79000000
   O     78.93000000    52.12000000    49.46000000
   C     81.55000000    51.94000000    47.42000000
   C     82.04000000    53.18000000    48.13000000
   C     81.87000000    53.36000000    49.51000000
   C     82.70000000    54.09000000    47.30000000
   C     82.46000000    54.49000000    50.08000000
   C     83.17000000    55.27000000    47.89000000
   C     83.07000000    55.47000000    49.28000000
   O     83.61000000    56.60000000    49.82000000
   H     79.05000000    53.37000000    47.33000000
   H     79.97000000    50.59000000    46.92000000
   H     81.87000000    51.98000000    46.38000000
   H     82.03000000    51.09000000    47.89000000
   H     81.41000000    52.52000000    50.00000000
   H     82.97000000    53.86000000    46.27000000
   H     82.47000000    54.65000000    51.15000000
   H     83.67000000    55.97000000    47.24000000
   H     83.49000000    56.56000000    50.77000000
   N     79.48000000    49.94000000    49.17000000
   C     78.91000000    49.34000000    50.36000000
   C     77.46000000    48.89000000    50.27000000
   O     77.04000000    48.48000000    49.18000000
   C     79.77000000    48.22000000    50.92000000
   C     79.26000000    47.34000000    52.06000000
   C     80.13000000    46.10000000    52.19000000
   O     81.11000000    46.03000000    52.96000000
   O     79.86000000    45.14000000    51.44000000
   H     80.06000000    49.25000000    48.71000000
   H     78.90000000    50.15000000    51.09000000
   H     80.78000000    48.52000000    51.20000000
   H     79.96000000    47.53000000    50.09000000
   H     78.22000000    47.04000000    51.97000000
   H     79.23000000    47.98000000    52.94000000
   N     76.64000000    49.02000000    51.31000000
   C     75.26000000    48.57000000    51.33000000
   C     74.39000000    49.57000000    50.58000000
   O     74.32000000    50.74000000    50.94000000
   C     74.85000000    48.42000000    52.79000000
   C     75.32000000    47.17000000    53.55000000
   C     75.25000000    47.42000000    55.05000000
   O     74.15000000    47.56000000    55.62000000
   O     76.34000000    47.63000000    55.63000000
   H     77.01000000    49.41000000    52.17000000
   H     75.08000000    47.60000000    50.86000000
   H     73.77000000    48.46000000    52.81000000
   H     75.25000000    49.30000000    53.30000000
   H     76.30000000    46.87000000    53.19000000
   H     74.64000000    46.35000000    53.32000000
   N     73.67000000    49.16000000    49.53000000
   C     72.94000000    50.02000000    48.62000000
   H     72.02900000    50.37100000    49.10500000
   H     73.56000000    50.87500000    48.35000000
   H     72.68000000    49.46100000    47.72100000
   H     73.69000000    48.18000000    49.28000000
  Ca     75.12000000    48.74000000    57.69000000
   O     75.89000000    50.20000000    59.94000000
   H     76.84000000    50.29000000    60.01000000
   H     75.56000000    50.52000000    60.78000000
   O     76.74000000    47.24000000    59.01000000
   H     77.50000000    46.90000000    58.53000000
   H     77.11000000    47.55000000    59.84000000
   O     77.75000000    49.87000000    57.60000000
   H     77.86000000    50.75000000    57.95000000
   H     78.65000000    49.54000000    57.50000000

Ca 1.00



