%chk=loop3.apoCaM-CA-Ng.Init295.run21.water3.chk
%nprocshared=20
%mem=10GB
%nosave
#b3lyp/svp scf=(tight,noincore,xqc) Test 
#IOP(5/87=12) Density=Current Pop=(MK,readradii) iop(6/33=2) iop(6/42=6)

loop3.apoCaM-CA-Ng.Init295.run21.water3 

   0  1 
   C     97.41000000    31.85000000    54.78000000
   C     98.40000000    31.95000000    55.94000000
   O     98.07000000    32.36000000    57.05000000
   H     96.53900000    32.47000000    54.99200000
   H     97.88700000    32.19600000    53.86300000
   H     97.09600000    30.81300000    54.65800000
   N     99.67000000    31.58000000    55.74000000
   C    100.62000000    31.37000000    56.81000000
   C    102.05000000    31.64000000    56.34000000
   O    102.44000000    31.14000000    55.29000000
   C    100.43000000    29.94000000    57.28000000
   C    101.37000000    29.59000000    58.44000000
   O    101.06000000    29.89000000    59.61000000
   O    102.48000000    29.10000000    58.17000000
   H     99.91000000    31.21000000    54.83000000
   H    100.42000000    32.04000000    57.65000000
   H    100.68000000    29.26000000    56.47000000
   H     99.40000000    29.78000000    57.61000000
   N    102.90000000    32.29000000    57.14000000
   C    104.15000000    32.91000000    56.76000000
   C    105.12000000    31.82000000    56.31000000
   O    105.83000000    32.04000000    55.33000000
   C    104.74000000    33.78000000    57.87000000
   C    105.96000000    34.61000000    57.45000000
   C    106.57000000    35.33000000    58.64000000
   C    107.91000000    35.91000000    58.21000000
   N    108.20000000    37.18000000    58.89000000
   H    102.59000000    32.71000000    58.00000000
   H    104.01000000    33.64000000    55.97000000
   H    105.15000000    33.19000000    58.68000000
   H    103.99000000    34.45000000    58.30000000
   H    105.64000000    35.36000000    56.73000000
   H    106.71000000    34.02000000    56.92000000
   H    106.67000000    34.55000000    59.40000000
   H    105.87000000    36.08000000    59.00000000
   H    107.81000000    36.20000000    57.16000000
   H    108.73000000    35.20000000    58.31000000
   H    107.49000000    37.89000000    58.78000000
   H    108.30000000    37.11000000    59.90000000
   H    109.07000000    37.58000000    58.57000000
   N    105.11000000    30.60000000    56.86000000
   C    105.86000000    29.43000000    56.46000000
   C    105.10000000    28.22000000    55.91000000
   O    105.76000000    27.26000000    55.53000000
   C    106.81000000    29.09000000    57.61000000
   C    106.01000000    28.95000000    58.89000000
   O    105.29000000    27.95000000    59.08000000
   O    105.89000000    29.92000000    59.68000000
   H    104.27000000    30.55000000    57.42000000
   H    106.50000000    29.85000000    55.69000000
   H    107.62000000    29.81000000    57.68000000
   H    107.39000000    28.20000000    57.39000000
   N    103.77000000    28.28000000    55.82000000
   C    102.94000000    27.28000000    55.18000000
   C    102.41000000    26.15000000    56.06000000
   O    101.54000000    25.40000000    55.62000000
   H    103.34000000    29.07000000    56.28000000
   H    103.52000000    26.86000000    54.36000000
   H    101.99000000    27.74000000    54.92000000
   N    102.93000000    26.06000000    57.28000000
   C    102.45000000    25.16000000    58.32000000
   C    101.67000000    26.04000000    59.29000000
   O    102.31000000    26.93000000    59.85000000
   C    103.65000000    24.44000000    58.92000000
   C    103.31000000    23.86000000    60.28000000
   N    104.16000000    24.15000000    61.27000000
   O    102.32000000    23.16000000    60.47000000
   H    103.69000000    26.67000000    57.53000000
   H    101.73000000    24.47000000    57.89000000
   H    104.50000000    25.11000000    59.06000000
   H    104.02000000    23.64000000    58.27000000
   H    104.88000000    24.82000000    61.05000000
   H    104.09000000    23.62000000    62.13000000
   N    100.35000000    25.84000000    59.26000000
   C     99.42000000    26.80000000    59.82000000
   C     99.54000000    27.14000000    61.30000000
   O     98.76000000    28.02000000    61.66000000
   H    100.01000000    25.23000000    58.53000000
   H     98.43000000    26.38000000    59.69000000
   H     99.50000000    27.68000000    59.19000000
   N    100.39000000    26.54000000    62.13000000
   C    100.61000000    27.07000000    63.46000000
   C    101.17000000    28.48000000    63.56000000
   O    101.93000000    28.96000000    62.72000000
   C    101.49000000    26.05000000    64.18000000
   C    100.75000000    24.80000000    64.60000000
   C    100.90000000    23.63000000    63.85000000
   C    100.01000000    24.78000000    65.79000000
   C    100.15000000    22.48000000    64.15000000
   C     99.21000000    23.66000000    66.03000000
   C     99.28000000    22.47000000    65.26000000
   O     98.51000000    21.41000000    65.62000000
   H    101.05000000    25.89000000    61.73000000
   H     99.67000000    27.06000000    64.02000000
   H    101.77000000    26.66000000    65.04000000
   H    102.37000000    25.83000000    63.59000000
   H    101.49000000    23.66000000    62.95000000
   H    100.01000000    25.65000000    66.42000000
   H    100.18000000    21.68000000    63.43000000
   H     98.46000000    23.71000000    66.80000000
   H     98.05000000    21.68000000    66.42000000
   N    100.67000000    29.20000000    64.57000000
   C    101.10000000    30.51000000    65.04000000
   C    102.51000000    30.73000000    65.56000000
   O    103.45000000    30.22000000    64.95000000
   C    100.57000000    31.74000000    64.30000000
   C     99.10000000    31.43000000    64.03000000
   C    101.29000000    32.01000000    62.98000000
   C     98.30000000    32.68000000    63.64000000
   H    100.03000000    28.71000000    65.18000000
   H    100.53000000    30.55000000    65.97000000
   H    100.73000000    32.62000000    64.92000000
   H     98.71000000    31.11000000    64.99000000
   H     98.98000000    30.67000000    63.26000000
   H    101.21000000    31.16000000    62.30000000
   H    100.79000000    32.81000000    62.44000000
   H    102.33000000    32.31000000    63.12000000
   H     98.70000000    33.16000000    62.75000000
   H     97.24000000    32.45000000    63.63000000
   H     98.44000000    33.38000000    64.47000000
   N    102.79000000    31.54000000    66.58000000
   C    104.10000000    31.83000000    67.12000000
   C    104.07000000    31.94000000    68.64000000
   O    105.14000000    31.86000000    69.24000000
   C    104.49000000    33.16000000    66.49000000
   O    103.61000000    34.18000000    66.89000000
   H    102.07000000    32.16000000    66.93000000
   H    104.86000000    31.11000000    66.81000000
   H    104.46000000    33.10000000    65.40000000
   H    105.46000000    33.53000000    66.81000000
   H    103.99000000    35.05000000    66.73000000
   N    102.96000000    32.23000000    69.31000000
   C    102.69000000    32.29000000    70.73000000
   C    103.71000000    32.90000000    71.69000000
   O    104.30000000    32.21000000    72.52000000
   C    102.13000000    30.94000000    71.16000000
   H    102.23000000    32.53000000    68.67000000
   H    101.77000000    32.87000000    70.64000000
   H    101.76000000    30.99000000    72.18000000
   H    101.37000000    30.61000000    70.45000000
   H    102.92000000    30.20000000    71.27000000
   N    104.00000000    34.20000000    71.60000000
   C    103.49000000    35.24000000    70.73000000
   C    102.72000000    36.34000000    71.45000000
   O    103.07000000    36.61000000    72.59000000
   C    104.58000000    35.77000000    69.81000000
   H    104.69000000    34.46000000    72.29000000
   H    102.70000000    34.80000000    70.11000000
   H    105.07000000    34.96000000    69.27000000
   H    104.06000000    36.46000000    69.15000000
   H    105.34000000    36.27000000    70.41000000
   N    101.73000000    37.05000000    70.91000000
   C    101.13000000    36.99000000    69.59000000
   C     99.71000000    36.43000000    69.62000000
   O     99.30000000    35.58000000    68.83000000
   C    101.19000000    38.37000000    68.96000000
   C    100.78000000    38.49000000    67.49000000
   C    100.77000000    39.93000000    67.01000000
   O     99.71000000    40.58000000    67.10000000
   O    101.80000000    40.48000000    66.57000000
   H    101.52000000    37.84000000    71.51000000
   H    101.69000000    36.25000000    69.02000000
   H    102.26000000    38.56000000    69.02000000
   H    100.71000000    39.16000000    69.53000000
   H     99.75000000    38.13000000    67.37000000
   H    101.40000000    37.87000000    66.85000000
   N     98.92000000    36.98000000    70.54000000
   C     97.54000000    36.60000000    70.78000000
   H     96.90800000    37.01600000    69.99600000
   H     97.45600000    35.51300000    70.77600000
   H     97.21900000    36.98600000    71.74800000
   H     99.24000000    37.68000000    71.19000000
  Ca    103.49000000    29.46000000    60.61000000
   O    104.80000000    30.84000000    62.70000000
   H    104.44000000    30.64000000    63.56000000
   H    105.23000000    31.69000000    62.81000000
   O    103.00000000    31.93000000    60.43000000
   H    103.43000000    32.37000000    61.17000000
   H    102.18000000    32.40000000    60.32000000
   O    104.52000000    27.54000000    62.31000000
   H    105.23000000    26.93000000    62.10000000
   H    104.25000000    27.28000000    63.19000000

Ca 1.00



