%chk=loop2.holoCaM.run31.water1.chk
%nprocshared=20
%mem=10GB
%nosave
#b3lyp/svp scf=(tight,noincore,xqc) Test 
#IOP(5/87=12) Density=Current Pop=(MK,readradii) iop(6/33=2) iop(6/42=6)

loop2.holoCaM.run31.water1 

   -2  1 
   C     62.13000000    65.64000000   111.98000000
   C     63.01000000    66.57000000   112.81000000
   O     64.21000000    66.65000000   112.54000000
   H     61.22300000    66.16700000   111.68400000
   H     62.67300000    65.32400000   111.08900000
   H     61.86400000    64.76500000   112.57300000
   N     62.55000000    67.36000000   113.78000000
   C     63.21000000    68.33000000   114.63000000
   C     64.24000000    67.71000000   115.55000000
   O     63.92000000    67.15000000   116.60000000
   C     62.09000000    69.10000000   115.34000000
   C     62.49000000    70.22000000   116.30000000
   O     63.65000000    70.67000000   116.36000000
   O     61.56000000    70.65000000   117.02000000
   H     61.55000000    67.27000000   113.84000000
   H     63.63000000    69.09000000   113.97000000
   H     61.45000000    68.43000000   115.91000000
   H     61.43000000    69.56000000   114.60000000
   N     65.48000000    67.54000000   115.07000000
   C     66.54000000    66.75000000   115.66000000
   C     67.03000000    67.31000000   116.99000000
   O     67.61000000    66.51000000   117.72000000
   C     67.69000000    66.62000000   114.66000000
   H     65.64000000    67.89000000   114.14000000
   H     66.13000000    65.76000000   115.82000000
   H     67.22000000    66.28000000   113.74000000
   H     68.11000000    67.61000000   114.49000000
   H     68.49000000    65.96000000   115.00000000
   N     66.61000000    68.50000000   117.41000000
   C     66.86000000    68.87000000   118.79000000
   C     65.60000000    69.08000000   119.61000000
   O     65.80000000    69.29000000   120.81000000
   C     67.71000000    70.14000000   118.82000000
   C     67.20000000    71.27000000   117.93000000
   O     67.91000000    72.30000000   117.91000000
   O     66.10000000    71.27000000   117.35000000
   H     66.36000000    69.23000000   116.76000000
   H     67.37000000    68.08000000   119.34000000
   H     68.71000000    69.83000000   118.50000000
   H     67.98000000    70.43000000   119.83000000
   N     64.39000000    69.03000000   119.06000000
   C     63.19000000    69.08000000   119.87000000
   C     62.71000000    70.45000000   120.31000000
   O     62.01000000    70.63000000   121.31000000
   H     64.32000000    68.87000000   118.07000000
   H     63.43000000    68.52000000   120.77000000
   H     62.39000000    68.61000000   119.29000000
   N     63.16000000    71.50000000   119.62000000
   C     63.02000000    72.90000000   119.99000000
   C     61.68000000    73.50000000   119.61000000
   O     61.42000000    74.64000000   119.99000000
   C     64.21000000    73.69000000   119.46000000
   C     63.85000000    74.45000000   118.19000000
   N     63.80000000    75.78000000   118.21000000
   O     63.71000000    73.87000000   117.11000000
   H     63.70000000    71.28000000   118.80000000
   H     63.07000000    73.01000000   121.07000000
   H     64.94000000    72.93000000   119.16000000
   H     64.69000000    74.29000000   120.23000000
   H     64.02000000    76.33000000   119.03000000
   H     63.54000000    76.18000000   117.32000000
   N     60.87000000    72.83000000   118.78000000
   C     59.51000000    73.14000000   118.39000000
   C     59.44000000    73.70000000   116.98000000
   O     58.35000000    73.92000000   116.45000000
   H     61.24000000    71.95000000   118.44000000
   H     59.06000000    73.91000000   119.02000000
   H     58.91000000    72.23000000   118.35000000
   N     60.56000000    73.98000000   116.31000000
   C     60.67000000    74.53000000   114.97000000
   C     61.68000000    73.85000000   114.06000000
   O     62.68000000    73.28000000   114.49000000
   C     60.85000000    76.05000000   115.05000000
   C     59.51000000    76.65000000   115.47000000
   O     61.99000000    76.26000000   115.85000000
   H     61.46000000    74.09000000   116.74000000
   H     59.70000000    74.40000000   114.49000000
   H     61.15000000    76.48000000   114.10000000
   H     62.80000000    76.13000000   115.36000000
   H     58.72000000    76.34000000   114.80000000
   H     59.29000000    76.35000000   116.50000000
   H     59.50000000    77.74000000   115.56000000
   N     61.41000000    73.90000000   112.75000000
   C     62.25000000    73.31000000   111.73000000
   C     63.34000000    74.30000000   111.36000000
   O     63.07000000    75.44000000   111.00000000
   C     61.42000000    72.76000000   110.57000000
   C     60.64000000    71.57000000   111.11000000
   C     62.26000000    72.46000000   109.33000000
   C     59.81000000    70.83000000   110.06000000
   H     60.57000000    74.39000000   112.49000000
   H     62.73000000    72.44000000   112.19000000
   H     60.66000000    73.51000000   110.33000000
   H     60.04000000    71.76000000   112.00000000
   H     61.35000000    70.86000000   111.54000000
   H     61.59000000    72.21000000   108.50000000
   H     62.98000000    73.23000000   109.08000000
   H     62.87000000    71.58000000   109.52000000
   H     60.52000000    70.21000000   109.52000000
   H     59.10000000    70.11000000   110.46000000
   H     59.24000000    71.56000000   109.48000000
   N     64.60000000    73.87000000   111.39000000
   C     65.79000000    74.48000000   110.84000000
   C     66.06000000    73.76000000   109.53000000
   O     65.53000000    72.68000000   109.25000000
   C     67.05000000    74.46000000   111.70000000
   C     66.75000000    74.63000000   113.19000000
   O     66.75000000    73.61000000   113.92000000
   O     66.71000000    75.78000000   113.66000000
   H     64.76000000    72.98000000   111.85000000
   H     65.61000000    75.54000000   110.66000000
   H     67.72000000    75.23000000   111.31000000
   H     67.43000000    73.45000000   111.52000000
   N     66.84000000    74.36000000   108.63000000
   C     67.17000000    73.78000000   107.34000000
   C     67.65000000    72.33000000   107.28000000
   O     67.04000000    71.64000000   106.47000000
   C     67.96000000    74.85000000   106.59000000
   C     68.21000000    74.53000000   105.14000000
   C     67.07000000    74.61000000   104.33000000
   C     69.35000000    73.90000000   104.64000000
   C     67.15000000    74.27000000   102.98000000
   C     69.46000000    73.58000000   103.28000000
   C     68.34000000    73.75000000   102.46000000
   H     67.35000000    75.18000000   108.92000000
   H     66.17000000    73.68000000   106.94000000
   H     68.90000000    75.12000000   107.08000000
   H     67.47000000    75.82000000   106.53000000
   H     66.11000000    74.90000000   104.74000000
   H     70.17000000    73.63000000   105.29000000
   H     66.28000000    74.30000000   102.34000000
   H     70.32000000    73.07000000   102.86000000
   H     68.44000000    73.45000000   101.42000000
   N     68.59000000    71.82000000   108.07000000
   C     68.95000000    70.42000000   107.99000000
   C     67.78000000    69.49000000   108.33000000
   O     67.72000000    68.35000000   107.88000000
   C     69.97000000    70.30000000   109.12000000
   C     70.54000000    71.66000000   109.52000000
   C     69.46000000    72.57000000   108.96000000
   H     69.36000000    70.15000000   107.02000000
   H     69.53000000    69.76000000   109.96000000
   H     70.79000000    69.72000000   108.72000000
   H     70.59000000    71.82000000   110.59000000
   H     71.54000000    71.83000000   109.11000000
   H     68.80000000    72.92000000   109.75000000
   H     69.99000000    73.38000000   108.45000000
   N     66.80000000    69.98000000   109.08000000
   C     65.58000000    69.36000000   109.55000000
   C     64.53000000    69.43000000   108.45000000
   O     63.82000000    68.45000000   108.24000000
   C     65.05000000    69.91000000   110.87000000
   C     66.22000000    70.04000000   111.85000000
   C     65.66000000    70.55000000   113.17000000
   O     64.69000000    71.35000000   113.19000000
   O     66.26000000    70.34000000   114.25000000
   H     66.81000000    70.97000000   109.30000000
   H     65.83000000    68.30000000   109.59000000
   H     64.27000000    69.27000000   111.26000000
   H     64.54000000    70.85000000   110.67000000
   H     67.06000000    70.65000000   111.53000000
   H     66.55000000    69.03000000   112.09000000
   N     64.50000000    70.52000000   107.68000000
   C     63.70000000    70.62000000   106.47000000
   H     62.80800000    71.21200000   106.67300000
   H     64.28400000    71.10200000   105.68600000
   H     63.40700000    69.62200000   106.14400000
   H     65.16000000    71.20000000   108.00000000
  Ca     64.97000000    72.57000000   115.35600000
   O     66.53000000    74.17000000   116.95600000
   H     67.06000000    74.90000000   116.66600000
   H     67.14000000    73.59000000   117.40600000

Ca 1.00



