%chk=loop4.apoCaM-CA-Ng.Init295.run9.water5.chk
%nprocshared=20
%mem=10GB
%nosave
#b3lyp/svp scf=(tight,noincore,xqc) Test 
#IOP(5/87=12) Density=Current Pop=(MK,readradii) iop(6/33=2) iop(6/42=6)

loop4.apoCaM-CA-Ng.Init295.run9.water5 

   -3  1 
   C     76.26000000    35.77000000    85.46000000
   C     77.39000000    35.97000000    86.47000000
   O     78.25000000    36.82000000    86.29000000
   H     75.42800000    36.42800000    85.71100000
   H     76.62100000    36.00700000    84.45900000
   H     75.92400000    34.73300000    85.49000000
   N     77.28000000    35.40000000    87.67000000
   C     78.20000000    35.60000000    88.77000000
   C     78.15000000    37.01000000    89.33000000
   O     79.24000000    37.56000000    89.49000000
   C     79.57000000    35.02000000    88.43000000
   C     79.62000000    33.63000000    87.81000000
   O     79.98000000    33.47000000    86.62000000
   O     79.41000000    32.64000000    88.54000000
   H     76.42000000    34.92000000    87.91000000
   H     77.92000000    34.90000000    89.56000000
   H     80.24000000    35.04000000    89.29000000
   H     79.97000000    35.70000000    87.68000000
   N     76.95000000    37.58000000    89.41000000
   C     76.53000000    38.91000000    89.79000000
   C     76.11000000    38.92000000    91.25000000
   O     75.41000000    38.00000000    91.66000000
   C     75.47000000    39.34000000    88.77000000
   C     76.04000000    39.55000000    87.37000000
   C     74.72000000    40.62000000    89.14000000
   C     77.07000000    40.65000000    87.15000000
   H     76.16000000    36.95000000    89.37000000
   H     77.38000000    39.58000000    89.62000000
   H     74.70000000    38.57000000    88.82000000
   H     75.32000000    39.57000000    86.55000000
   H     76.56000000    38.63000000    87.10000000
   H     74.29000000    41.15000000    88.29000000
   H     74.14000000    40.46000000    90.05000000
   H     75.43000000    41.38000000    89.47000000
   H     76.82000000    41.68000000    87.40000000
   H     77.92000000    40.49000000    87.81000000
   H     77.30000000    40.70000000    86.08000000
   N     76.32000000    39.89000000    92.14000000
   C     77.27000000    40.97000000    91.99000000
   C     78.75000000    40.65000000    91.87000000
   O     79.48000000    41.42000000    91.25000000
   C     77.02000000    42.05000000    93.04000000
   C     75.68000000    42.77000000    92.89000000
   O     74.82000000    42.60000000    93.78000000
   O     75.43000000    43.47000000    91.89000000
   H     75.93000000    39.77000000    93.07000000
   H     77.01000000    41.44000000    91.04000000
   H     77.81000000    42.79000000    92.89000000
   H     77.10000000    41.59000000    94.03000000
   N     79.09000000    39.45000000    92.35000000
   C     80.44000000    38.92000000    92.29000000
   C     81.49000000    39.62000000    93.15000000
   O     81.21000000    40.26000000    94.16000000
   H     78.35000000    39.00000000    92.88000000
   H     80.76000000    38.96000000    91.25000000
   H     80.41000000    37.88000000    92.60000000
   N     82.69000000    39.18000000    92.77000000
   C     83.90000000    39.74000000    93.34000000
   C     84.51000000    40.79000000    92.42000000
   O     85.49000000    41.42000000    92.80000000
   C     84.87000000    38.58000000    93.60000000
   C     85.17000000    37.80000000    92.33000000
   O     85.68000000    38.41000000    91.36000000
   O     84.86000000    36.59000000    92.27000000
   H     82.78000000    38.43000000    92.10000000
   H     83.67000000    40.22000000    94.28000000
   H     84.45000000    37.94000000    94.37000000
   H     85.79000000    38.94000000    94.06000000
   N     83.96000000    40.97000000    91.22000000
   C     84.33000000    42.06000000    90.34000000
   C     85.53000000    41.87000000    89.42000000
   O     85.71000000    42.64000000    88.49000000
   H     83.31000000    40.27000000    90.87000000
   H     84.52000000    42.91000000    90.99000000
   H     83.47000000    42.37000000    89.75000000
   N     86.40000000    40.95000000    89.85000000
   C     87.69000000    40.55000000    89.30000000
   C     87.66000000    40.32000000    87.79000000
   O     88.55000000    40.73000000    87.05000000
   C     88.88000000    41.38000000    89.77000000
   C     89.29000000    41.00000000    91.19000000
   C     90.24000000    42.00000000    91.84000000
   N     90.53000000    41.71000000    93.11000000
   O     90.60000000    43.07000000    91.34000000
   H     86.18000000    40.46000000    90.70000000
   H     87.83000000    39.56000000    89.71000000
   H     88.60000000    42.43000000    89.78000000
   H     89.77000000    41.29000000    89.14000000
   H     89.70000000    40.00000000    91.22000000
   H     88.41000000    40.92000000    91.83000000
   H     90.04000000    41.02000000    93.66000000
   H     91.12000000    42.43000000    93.50000000
   N     86.63000000    39.61000000    87.33000000
   C     86.31000000    39.53000000    85.92000000
   C     87.01000000    38.34000000    85.28000000
   O     87.21000000    37.28000000    85.89000000
   C     84.80000000    39.40000000    85.70000000
   C     84.17000000    40.77000000    85.89000000
   C     84.28000000    38.92000000    84.35000000
   H     86.01000000    39.18000000    88.01000000
   H     86.71000000    40.45000000    85.52000000
   H     84.39000000    38.67000000    86.40000000
   H     84.26000000    41.07000000    86.93000000
   H     84.72000000    41.58000000    85.39000000
   H     83.10000000    40.75000000    85.73000000
   H     84.50000000    39.60000000    83.52000000
   H     84.63000000    37.92000000    84.10000000
   H     83.20000000    38.87000000    84.41000000
   N     87.50000000    38.41000000    84.04000000
   C     88.09000000    37.33000000    83.28000000
   C     87.06000000    36.72000000    82.34000000
   O     86.15000000    37.42000000    81.90000000
   C     89.31000000    37.85000000    82.52000000
   C     90.06000000    36.90000000    81.61000000
   N     90.04000000    35.57000000    81.70000000
   O     90.86000000    37.34000000    80.78000000
   H     87.43000000    39.36000000    83.71000000
   H     88.44000000    36.65000000    84.04000000
   H     89.96000000    38.28000000    83.28000000
   H     89.02000000    38.69000000    81.88000000
   H     89.62000000    35.01000000    82.44000000
   H     90.55000000    35.09000000    80.97000000
   N     87.13000000    35.42000000    82.04000000
   C     86.30000000    34.63000000    81.16000000
   C     86.27000000    33.20000000    81.70000000
   O     87.23000000    32.75000000    82.33000000
   C     86.96000000    34.66000000    79.79000000
   C     86.45000000    33.79000000    78.66000000
   C     85.08000000    33.88000000    78.38000000
   C     87.28000000    32.83000000    78.08000000
   C     84.57000000    32.94000000    77.47000000
   C     86.72000000    31.84000000    77.26000000
   C     85.35000000    31.87000000    76.97000000
   O     84.82000000    31.04000000    76.03000000
   H     87.82000000    34.97000000    82.63000000
   H     85.31000000    35.09000000    81.21000000
   H     88.04000000    34.50000000    79.89000000
   H     86.90000000    35.64000000    79.32000000
   H     84.50000000    34.62000000    78.91000000
   H     88.34000000    32.93000000    78.21000000
   H     83.54000000    32.89000000    77.18000000
   H     87.33000000    31.06000000    76.83000000
   H     85.52000000    30.56000000    75.58000000
   N     85.25000000    32.43000000    81.31000000
   C     85.21000000    30.99000000    81.42000000
   C     84.73000000    30.28000000    80.16000000
   O     85.42000000    29.39000000    79.68000000
   C     84.52000000    30.71000000    82.76000000
   C     84.71000000    29.27000000    83.21000000
   C     84.15000000    29.03000000    84.61000000
   O     82.93000000    29.24000000    84.77000000
   O     84.86000000    28.56000000    85.52000000
   H     84.50000000    32.97000000    80.91000000
   H     86.22000000    30.60000000    81.48000000
   H     83.45000000    30.92000000    82.78000000
   H     84.91000000    31.38000000    83.53000000
   H     85.79000000    29.18000000    83.27000000
   H     84.38000000    28.48000000    82.53000000
   N     83.52000000    30.51000000    79.63000000
   C     82.35000000    31.23000000    80.08000000
   C     81.50000000    31.83000000    78.96000000
   O     81.43000000    31.24000000    77.89000000
   C     81.48000000    30.28000000    80.90000000
   C     80.86000000    29.11000000    80.13000000
   C     80.21000000    28.14000000    81.10000000
   O     80.98000000    27.42000000    81.78000000
   O     78.98000000    28.13000000    81.32000000
   H     83.33000000    29.90000000    78.85000000
   H     82.58000000    32.06000000    80.75000000
   H     80.68000000    30.74000000    81.47000000
   H     82.10000000    29.88000000    81.71000000
   H     81.61000000    28.64000000    79.49000000
   H     80.04000000    29.57000000    79.58000000
   N     80.71000000    32.83000000    79.36000000
   C     79.79000000    33.63000000    78.57000000
   H     78.90300000    33.85400000    79.16200000
   H     80.27600000    34.56100000    78.27800000
   H     79.50000000    33.07600000    77.67700000
   H     80.86000000    33.23000000    80.27000000
  Ca     78.88000000    31.16000000    86.27000000
   O     80.04000000    28.95000000    85.13000000
   H     80.90000000    28.95000000    84.70000000
   H     79.56000000    28.25000000    84.69000000
   O     79.32000000    31.84000000    83.71000000
   H     80.10000000    31.97000000    83.17000000
   H     78.64000000    31.58000000    83.09000000
   O     79.35000000    29.46000000    88.27000000
   H     78.76000000    29.65000000    89.00000000
   H     79.70000000    28.59000000    88.46000000
   O     76.53000000    31.07000000    87.78000000
   H     76.41000000    31.28000000    88.71000000
   H     75.78000000    30.53000000    87.56000000
   O     81.49000000    30.99000000    86.29000000
   H     82.07000000    30.47000000    85.73000000
   H     82.06000000    31.68000000    86.64000000

Ca 1.00



