%chk=loop3.apoCaM-CA-Ng.Init295.run49.water3.chk
%nprocshared=20
%mem=10GB
%nosave
#b3lyp/svp scf=(tight,noincore,xqc) Test 
#IOP(5/87=12) Density=Current Pop=(MK,readradii) iop(6/33=2) iop(6/42=6)

loop3.apoCaM-CA-Ng.Init295.run49.water3 

   0  1 
   C     85.01000000    32.17000000    42.11000000
   C     84.88000000    31.27000000    43.33000000
   O     84.62000000    31.79000000    44.41000000
   H     86.06300000    32.27500000    41.84700000
   H     84.46900000    31.72800000    41.27300000
   H     84.59300000    33.15100000    42.33600000
   N     84.88000000    29.94000000    43.20000000
   C     84.84000000    28.85000000    44.16000000
   C     85.83000000    27.74000000    43.82000000
   O     86.04000000    27.35000000    42.67000000
   C     83.47000000    28.20000000    44.24000000
   C     83.43000000    27.22000000    45.41000000
   O     83.36000000    27.58000000    46.60000000
   O     83.53000000    25.99000000    45.21000000
   H     84.97000000    29.66000000    42.23000000
   H     84.96000000    29.30000000    45.14000000
   H     83.10000000    27.79000000    43.30000000
   H     82.78000000    29.02000000    44.43000000
   N     86.30000000    27.06000000    44.86000000
   C     87.30000000    26.01000000    44.77000000
   C     86.80000000    24.72000000    44.15000000
   O     87.62000000    23.89000000    43.78000000
   C     88.20000000    25.84000000    46.00000000
   C     89.15000000    27.03000000    46.05000000
   C     89.74000000    27.22000000    47.45000000
   C     90.37000000    28.59000000    47.64000000
   N     90.61000000    29.02000000    49.03000000
   H     86.15000000    27.47000000    45.77000000
   H     88.01000000    26.34000000    44.02000000
   H     88.73000000    24.89000000    45.92000000
   H     87.52000000    25.73000000    46.85000000
   H     88.53000000    27.88000000    45.79000000
   H     89.93000000    26.83000000    45.32000000
   H     90.49000000    26.46000000    47.62000000
   H     88.92000000    27.12000000    48.16000000
   H     89.80000000    29.40000000    47.18000000
   H     91.38000000    28.61000000    47.21000000
   H     90.91000000    29.98000000    49.07000000
   H     89.78000000    28.92000000    49.59000000
   H     91.32000000    28.45000000    49.47000000
   N     85.50000000    24.58000000    43.89000000
   C     84.89000000    23.50000000    43.14000000
   C     83.80000000    23.99000000    42.19000000
   O     83.22000000    23.17000000    41.48000000
   C     84.22000000    22.47000000    44.04000000
   C     83.38000000    23.09000000    45.15000000
   O     82.24000000    23.53000000    44.88000000
   O     83.90000000    23.20000000    46.28000000
   H     84.83000000    25.18000000    44.36000000
   H     85.73000000    23.06000000    42.60000000
   H     84.92000000    21.86000000    44.61000000
   H     83.62000000    21.76000000    43.47000000
   N     83.55000000    25.28000000    41.96000000
   C     82.65000000    25.91000000    41.01000000
   C     81.28000000    26.24000000    41.60000000
   O     80.45000000    26.73000000    40.84000000
   H     84.10000000    25.89000000    42.54000000
   H     82.53000000    25.26000000    40.14000000
   H     83.13000000    26.78000000    40.58000000
   N     81.01000000    26.03000000    42.88000000
   C     79.76000000    26.29000000    43.58000000
   C     79.93000000    26.90000000    44.97000000
   O     80.48000000    26.27000000    45.87000000
   C     78.93000000    25.01000000    43.63000000
   C     77.46000000    25.33000000    43.90000000
   N     76.55000000    24.44000000    43.51000000
   O     77.09000000    26.43000000    44.31000000
   H     81.78000000    25.57000000    43.35000000
   H     79.31000000    27.06000000    42.97000000
   H     79.36000000    24.32000000    44.35000000
   H     79.03000000    24.41000000    42.73000000
   H     76.83000000    23.55000000    43.11000000
   H     75.58000000    24.61000000    43.73000000
   N     79.63000000    28.19000000    45.08000000
   C     79.86000000    29.14000000    46.14000000
   C     79.29000000    28.89000000    47.53000000
   O     79.15000000    29.84000000    48.30000000
   H     79.18000000    28.60000000    44.27000000
   H     79.59000000    30.14000000    45.80000000
   H     80.94000000    29.15000000    46.31000000
   N     79.02000000    27.62000000    47.84000000
   C     78.98000000    27.18000000    49.22000000
   C     80.36000000    27.02000000    49.84000000
   O     81.16000000    26.34000000    49.21000000
   C     78.15000000    25.92000000    49.42000000
   C     76.73000000    25.90000000    48.91000000
   C     76.29000000    25.17000000    47.80000000
   C     75.78000000    26.72000000    49.55000000
   C     74.98000000    25.17000000    47.32000000
   C     74.48000000    26.82000000    49.04000000
   C     74.08000000    26.08000000    47.91000000
   O     72.79000000    26.16000000    47.48000000
   H     79.36000000    26.93000000    47.19000000
   H     78.34000000    27.84000000    49.80000000
   H     78.22000000    25.75000000    50.49000000
   H     78.65000000    25.07000000    48.94000000
   H     76.94000000    24.41000000    47.40000000
   H     75.96000000    27.36000000    50.39000000
   H     74.69000000    24.55000000    46.49000000
   H     73.78000000    27.42000000    49.61000000
   H     72.20000000    26.64000000    48.07000000
   N     80.46000000    27.47000000    51.09000000
   C     81.55000000    27.33000000    52.03000000
   C     81.97000000    25.94000000    52.51000000
   O     81.52000000    24.93000000    51.98000000
   C     82.74000000    28.20000000    51.64000000
   C     82.39000000    29.64000000    51.28000000
   C     83.57000000    27.61000000    50.51000000
   C     81.69000000    30.52000000    52.32000000
   H     79.56000000    27.80000000    51.41000000
   H     81.17000000    27.77000000    52.96000000
   H     83.38000000    28.28000000    52.51000000
   H     81.72000000    29.66000000    50.41000000
   H     83.31000000    30.16000000    51.00000000
   H     83.21000000    27.86000000    49.51000000
   H     84.53000000    28.06000000    50.75000000
   H     83.81000000    26.57000000    50.72000000
   H     82.28000000    30.64000000    53.23000000
   H     81.50000000    31.53000000    51.98000000
   H     80.75000000    30.06000000    52.62000000
   N     82.80000000    25.98000000    53.56000000
   C     83.28000000    24.74000000    54.16000000
   C     83.22000000    24.75000000    55.68000000
   O     83.45000000    23.70000000    56.27000000
   C     84.62000000    24.45000000    53.50000000
   O     85.63000000    25.40000000    53.78000000
   H     82.99000000    26.86000000    54.00000000
   H     82.57000000    24.01000000    53.78000000
   H     84.47000000    24.44000000    52.42000000
   H     84.94000000    23.48000000    53.89000000
   H     86.42000000    25.09000000    53.33000000
   N     82.94000000    25.87000000    56.35000000
   C     83.03000000    26.06000000    57.79000000
   C     84.28000000    25.57000000    58.49000000
   O     84.30000000    24.48000000    59.06000000
   C     81.75000000    25.50000000    58.40000000
   H     82.77000000    26.68000000    55.78000000
   H     82.89000000    27.13000000    57.91000000
   H     80.87000000    26.09000000    58.15000000
   H     81.56000000    24.49000000    58.05000000
   H     81.81000000    25.61000000    59.49000000
   N     85.40000000    26.29000000    58.61000000
   C     85.55000000    27.64000000    58.11000000
   C     84.89000000    28.66000000    59.03000000
   O     84.60000000    28.36000000    60.19000000
   C     87.06000000    27.88000000    57.97000000
   H     86.21000000    25.82000000    58.99000000
   H     85.11000000    27.76000000    57.13000000
   H     87.61000000    27.71000000    58.90000000
   H     87.35000000    27.14000000    57.24000000
   H     87.30000000    28.91000000    57.70000000
   N     84.72000000    29.91000000    58.59000000
   C     84.52000000    30.24000000    57.19000000
   C     83.29000000    31.15000000    57.19000000
   O     82.32000000    30.92000000    56.48000000
   C     85.68000000    31.04000000    56.61000000
   C     85.61000000    31.58000000    55.19000000
   C     86.93000000    32.18000000    54.73000000
   O     87.74000000    31.46000000    54.10000000
   O     87.22000000    33.37000000    55.00000000
   H     84.49000000    30.65000000    59.23000000
   H     84.36000000    29.43000000    56.48000000
   H     86.51000000    30.33000000    56.58000000
   H     85.87000000    31.86000000    57.30000000
   H     84.80000000    32.30000000    55.15000000
   H     85.43000000    30.67000000    54.62000000
   N     83.26000000    32.21000000    58.00000000
   C     82.11000000    33.08000000    58.20000000
   H     81.27000000    32.49200000    58.56800000
   H     82.36000000    33.85100000    58.92800000
   H     81.83800000    33.54700000    57.25400000
   H     83.90000000    32.39000000    58.75000000
  Ca     82.48000000    25.06000000    47.38000000
   O     82.49000000    23.64000000    49.88000000
   H     82.63000000    22.70000000    50.00000000
   H     81.99000000    23.91000000    50.65000000
   O     80.53000000    23.27000000    47.34000000
   H     79.96000000    22.90000000    48.01000000
   H     80.40000000    22.70000000    46.58000000
   O     85.13000000    25.82000000    48.32000000
   H     85.27000000    26.75000000    48.13000000
   H     85.94000000    25.54000000    48.74000000

Ca 1.00



