%chk=loop1.apoCaM-CA-Ng.Init31.run3.water6.chk
%nprocshared=20
%mem=10GB
%nosave
#b3lyp/svp scf=(tight,noincore,xqc) Test 
#IOP(5/87=12) Density=Current Pop=(MK,readradii) iop(6/33=2) iop(6/42=6)

loop1.apoCaM-CA-Ng.Init31.run3.water6 

   0  1 
   C     51.69000000    66.95000000     1.68000000
   C     50.26000000    66.46000000     1.58000000
   O     49.68000000    66.57000000     0.50000000
   H     52.32000000    66.37100000     1.00400000
   H     51.73400000    68.00400000     1.40400000
   H     52.04600000    66.82700000     2.70300000
   N     49.66000000    66.01000000     2.69000000
   C     48.45000000    65.23000000     2.57000000
   C     47.23000000    66.07000000     2.94000000
   O     47.20000000    66.89000000     3.86000000
   C     48.54000000    63.96000000     3.40000000
   C     47.27000000    63.18000000     3.69000000
   O     46.57000000    62.81000000     2.71000000
   O     46.95000000    62.88000000     4.86000000
   H     50.08000000    66.07000000     3.61000000
   H     48.40000000    64.80000000     1.57000000
   H     49.02000000    64.14000000     4.36000000
   H     49.14000000    63.22000000     2.87000000
   N     46.15000000    66.00000000     2.16000000
   C     45.05000000    66.94000000     2.21000000
   C     43.73000000    66.66000000     2.92000000
   O     43.32000000    67.56000000     3.64000000
   C     44.82000000    67.32000000     0.75000000
   C     45.98000000    68.12000000     0.15000000
   C     45.79000000    68.50000000    -1.31000000
   C     45.70000000    67.34000000    -2.30000000
   N     45.72000000    67.85000000    -3.68000000
   H     46.13000000    65.23000000     1.51000000
   H     45.28000000    67.81000000     2.83000000
   H     43.86000000    67.84000000     0.66000000
   H     44.64000000    66.44000000     0.14000000
   H     46.92000000    67.60000000     0.34000000
   H     45.99000000    69.03000000     0.74000000
   H     46.70000000    69.06000000    -1.53000000
   H     45.01000000    69.23000000    -1.51000000
   H     44.89000000    66.62000000    -2.12000000
   H     46.61000000    66.75000000    -2.18000000
   H     46.60000000    68.30000000    -3.87000000
   H     45.66000000    67.16000000    -4.42000000
   H     44.92000000    68.47000000    -3.77000000
   N     43.08000000    65.50000000     2.78000000
   C     43.25000000    64.29000000     2.00000000
   C     42.90000000    63.02000000     2.76000000
   O     41.77000000    62.90000000     3.25000000
   C     42.34000000    64.46000000     0.79000000
   C     42.48000000    63.17000000    -0.01000000
   O     43.64000000    62.71000000    -0.12000000
   O     41.47000000    62.62000000    -0.49000000
   H     42.24000000    65.49000000     3.33000000
   H     44.28000000    64.32000000     1.67000000
   H     42.59000000    65.30000000     0.14000000
   H     41.28000000    64.52000000     1.04000000
   N     43.88000000    62.12000000     2.83000000
   C     43.66000000    60.79000000     3.37000000
   C     44.76000000    59.81000000     3.01000000
   O     44.42000000    58.68000000     2.67000000
   H     44.77000000    62.31000000     2.39000000
   H     42.69000000    60.40000000     3.06000000
   H     43.79000000    60.91000000     4.45000000
   N     46.04000000    60.14000000     3.15000000
   C     47.18000000    59.26000000     2.98000000
   C     47.12000000    58.02000000     3.86000000
   O     46.13000000    57.74000000     4.52000000
   C     47.19000000    58.81000000     1.52000000
   C     47.20000000    59.95000000     0.52000000
   O     46.14000000    60.36000000    -0.01000000
   O     48.31000000    60.36000000     0.11000000
   H     46.15000000    61.14000000     3.16000000
   H     48.06000000    59.84000000     3.27000000
   H     46.33000000    58.18000000     1.25000000
   H     48.14000000    58.29000000     1.42000000
   N     48.21000000    57.25000000     3.96000000
   C     49.53000000    57.57000000     3.45000000
   C     49.98000000    56.53000000     2.44000000
   O     51.14000000    56.48000000     2.02000000
   H     48.12000000    56.48000000     4.62000000
   H     50.14000000    57.51000000     4.35000000
   H     49.63000000    58.55000000     3.00000000
   N     49.04000000    55.67000000     2.03000000
   C     49.24000000    54.58000000     1.11000000
   C     50.41000000    53.65000000     1.40000000
   O     51.47000000    53.70000000     0.78000000
   C     49.32000000    55.18000000    -0.29000000
   C     48.21000000    56.13000000    -0.75000000
   O     49.22000000    54.17000000    -1.27000000
   H     48.17000000    55.72000000     2.54000000
   H     48.32000000    54.00000000     1.23000000
   H     50.29000000    55.65000000    -0.40000000
   H     49.98000000    54.18000000    -1.85000000
   H     48.50000000    57.09000000    -0.33000000
   H     48.19000000    56.23000000    -1.83000000
   H     47.25000000    55.72000000    -0.42000000
   N     50.21000000    52.90000000     2.48000000
   C     50.94000000    51.74000000     2.96000000
   C     50.93000000    50.61000000     1.94000000
   O     50.51000000    49.50000000     2.27000000
   C     52.35000000    52.09000000     3.41000000
   C     52.48000000    52.76000000     4.78000000
   C     53.19000000    50.82000000     3.56000000
   C     51.94000000    54.19000000     4.78000000
   H     49.36000000    53.14000000     2.97000000
   H     50.48000000    51.41000000     3.89000000
   H     52.81000000    52.71000000     2.65000000
   H     53.55000000    52.77000000     4.96000000
   H     51.99000000    52.30000000     5.63000000
   H     54.17000000    50.99000000     4.00000000
   H     52.64000000    50.09000000     4.16000000
   H     53.22000000    50.30000000     2.60000000
   H     50.85000000    54.15000000     4.70000000
   H     52.31000000    54.60000000     5.71000000
   H     52.38000000    54.68000000     3.91000000
   N     51.33000000    50.84000000     0.69000000
   C     51.41000000    49.81000000    -0.33000000
   C     52.77000000    49.67000000    -1.02000000
   O     53.65000000    50.53000000    -0.98000000
   C     50.31000000    49.92000000    -1.38000000
   C     50.43000000    51.22000000    -2.18000000
   O     49.08000000    50.11000000    -0.72000000
   H     51.72000000    51.75000000     0.48000000
   H     51.30000000    48.89000000     0.24000000
   H     50.32000000    49.06000000    -2.05000000
   H     48.93000000    49.27000000    -0.28000000
   H     50.67000000    52.06000000    -1.53000000
   H     51.27000000    51.13000000    -2.88000000
   H     49.55000000    51.50000000    -2.76000000
   N     53.02000000    48.54000000    -1.67000000
   C     54.14000000    48.51000000    -2.59000000
   C     53.92000000    49.33000000    -3.85000000
   O     52.80000000    49.41000000    -4.35000000
   C     54.51000000    47.06000000    -2.89000000
   C     53.60000000    46.26000000    -3.82000000
   O     55.75000000    47.06000000    -3.58000000
   H     52.34000000    47.80000000    -1.77000000
   H     55.00000000    48.95000000    -2.10000000
   H     54.61000000    46.55000000    -1.93000000
   H     56.42000000    46.76000000    -2.97000000
   H     53.96000000    45.24000000    -3.83000000
   H     52.62000000    46.17000000    -3.36000000
   H     53.67000000    46.61000000    -4.85000000
   N     54.98000000    49.98000000    -4.33000000
   C     55.09000000    50.97000000    -5.39000000
   C     53.99000000    52.02000000    -5.31000000
   O     53.01000000    51.96000000    -6.05000000
   C     55.10000000    50.23000000    -6.72000000
   C     56.32000000    49.33000000    -6.87000000
   C     56.47000000    48.80000000    -8.29000000
   C     57.72000000    47.96000000    -8.52000000
   N     58.89000000    48.61000000    -7.91000000
   H     55.82000000    49.84000000    -3.78000000
   H     56.06000000    51.47000000    -5.32000000
   H     55.24000000    50.95000000    -7.53000000
   H     54.18000000    49.71000000    -6.98000000
   H     56.12000000    48.51000000    -6.18000000
   H     57.21000000    49.90000000    -6.60000000
   H     56.55000000    49.65000000    -8.97000000
   H     55.57000000    48.24000000    -8.54000000
   H     57.91000000    47.69000000    -9.56000000
   H     57.57000000    47.02000000    -7.99000000
   H     59.04000000    49.55000000    -8.26000000
   H     58.86000000    48.55000000    -6.91000000
   H     59.70000000    48.10000000    -8.23000000
   N     54.13000000    52.97000000    -4.38000000
   C     53.13000000    53.99000000    -4.13000000
   C     52.62000000    54.17000000    -2.70000000
   O     51.46000000    54.56000000    -2.58000000
   C     53.59000000    55.35000000    -4.62000000
   C     53.51000000    55.39000000    -6.15000000
   C     54.09000000    56.69000000    -6.68000000
   O     53.47000000    57.77000000    -6.53000000
   O     55.14000000    56.78000000    -7.35000000
   H     54.90000000    52.96000000    -3.73000000
   H     52.22000000    53.76000000    -4.68000000
   H     54.63000000    55.45000000    -4.32000000
   H     52.96000000    56.16000000    -4.24000000
   H     52.48000000    55.24000000    -6.47000000
   H     54.12000000    54.61000000    -6.60000000
   N     53.38000000    54.00000000    -1.62000000
   C     54.71000000    53.52000000    -1.33000000
   H     55.37700000    54.36900000    -1.17700000
   H     54.68800000    52.90900000    -0.42800000
   H     55.07100000    52.92100000    -2.16600000
   H     52.77000000    53.98000000    -0.81000000
  Ca     44.26000000    60.69000000    -1.57900000
   O     45.51000000    62.55000000    -3.00900000
   H     46.06000000    61.87000000    -3.39900000
   H     46.10000000    63.05000000    -2.44900000
   O     46.87000000    60.10000000    -3.16900000
   H     47.82000000    60.17000000    -3.12900000
   H     46.71000000    59.26000000    -3.59900000
   O     44.27000000    58.03000000    -1.02900000
   H     43.93000000    57.31000000    -1.56900000
   H     44.31000000    57.67000000    -0.14900000
   O     42.00000000    59.86000000    -0.69900000
   H     41.24000000    59.30000000    -0.55900000
   H     41.78000000    60.67000000    -0.23900000
   O     44.16000000    58.72000000    -4.10900000
   H     43.37000000    58.46000000    -4.57900000
   H     44.62000000    57.90000000    -3.93900000
   O     42.54000000    61.46000000    -3.40900000
   H     41.94000000    62.11000000    -3.78900000
   H     42.21000000    60.62000000    -3.72900000

Ca 1.00



