%chk=loop1.apoCaM-CA-Ng.Init295.run24.water5.chk
%nprocshared=20
%mem=10GB
%nosave
#b3lyp/svp scf=(tight,noincore,xqc) Test 
#IOP(5/87=12) Density=Current Pop=(MK,readradii) iop(6/33=2) iop(6/42=6)

loop1.apoCaM-CA-Ng.Init295.run24.water5 

   0  1 
   C     71.21000000    64.42000000    50.42000000
   C     69.96000000    63.98000000    49.67000000
   O     68.84000000    63.79000000    50.13000000
   H     71.98600000    64.69100000    49.70400000
   H     70.97500000    65.28200000    51.04500000
   H     71.56500000    63.60200000    51.04700000
   N     70.18000000    63.87000000    48.35000000
   C     69.24000000    63.43000000    47.34000000
   C     67.89000000    64.14000000    47.34000000
   O     66.84000000    63.58000000    47.64000000
   C     69.18000000    61.90000000    47.32000000
   C     68.24000000    61.39000000    46.24000000
   O     67.96000000    60.18000000    46.30000000
   O     67.88000000    62.13000000    45.29000000
   H     71.13000000    63.90000000    48.03000000
   H     69.82000000    63.63000000    46.44000000
   H     68.92000000    61.51000000    48.30000000
   H     70.14000000    61.46000000    47.04000000
   N     68.07000000    65.42000000    47.01000000
   C     67.06000000    66.44000000    47.20000000
   C     66.85000000    67.39000000    46.03000000
   O     65.91000000    68.18000000    46.07000000
   C     67.24000000    67.10000000    48.56000000
   C     68.44000000    68.05000000    48.59000000
   C     68.78000000    68.57000000    49.98000000
   C     69.89000000    69.61000000    49.89000000
   N     70.34000000    70.15000000    51.19000000
   H     69.00000000    65.76000000    46.79000000
   H     66.11000000    65.90000000    47.26000000
   H     67.40000000    66.29000000    49.27000000
   H     66.28000000    67.58000000    48.72000000
   H     68.21000000    68.93000000    47.99000000
   H     69.30000000    67.61000000    48.09000000
   H     69.04000000    67.74000000    50.64000000
   H     67.85000000    69.03000000    50.32000000
   H     69.51000000    70.40000000    49.23000000
   H     70.80000000    69.25000000    49.42000000
   H     70.85000000    69.49000000    51.76000000
   H     70.89000000    71.00000000    51.17000000
   H     69.57000000    70.43000000    51.77000000
   N     67.74000000    67.39000000    45.03000000
   C     67.57000000    68.28000000    43.90000000
   C     67.90000000    67.72000000    42.52000000
   O     66.99000000    67.84000000    41.70000000
   C     68.42000000    69.51000000    44.24000000
   C     68.10000000    70.65000000    43.29000000
   O     68.66000000    70.79000000    42.18000000
   O     67.13000000    71.40000000    43.54000000
   H     68.41000000    66.64000000    44.97000000
   H     66.56000000    68.69000000    43.89000000
   H     69.49000000    69.31000000    44.17000000
   H     68.14000000    69.70000000    45.27000000
   N     69.08000000    67.17000000    42.22000000
   C     69.51000000    66.78000000    40.89000000
   C     70.42000000    67.77000000    40.19000000
   O     71.45000000    67.29000000    39.71000000
   H     69.80000000    67.16000000    42.94000000
   H     68.71000000    66.75000000    40.15000000
   H     70.00000000    65.81000000    40.97000000
   N     70.12000000    69.06000000    40.13000000
   C     70.77000000    69.94000000    39.18000000
   C     71.53000000    71.09000000    39.81000000
   O     72.44000000    71.62000000    39.17000000
   C     69.78000000    70.48000000    38.14000000
   C     68.62000000    71.18000000    38.82000000
   O     67.63000000    70.48000000    39.15000000
   O     68.67000000    72.42000000    39.00000000
   H     69.17000000    69.27000000    40.42000000
   H     71.61000000    69.38000000    38.77000000
   H     69.49000000    69.70000000    37.44000000
   H     70.29000000    71.19000000    37.49000000
   N     71.26000000    71.46000000    41.06000000
   C     71.99000000    72.48000000    41.79000000
   C     73.16000000    71.80000000    42.50000000
   O     73.12000000    70.62000000    42.84000000
   H     70.63000000    70.85000000    41.56000000
   H     71.41000000    72.96000000    42.57000000
   H     72.21000000    73.27000000    41.06000000
   N     74.20000000    72.60000000    42.74000000
   C     75.47000000    72.32000000    43.38000000
   C     76.41000000    71.48000000    42.53000000
   O     76.35000000    71.57000000    41.31000000
   C     76.21000000    73.61000000    43.73000000
   C     77.55000000    73.40000000    44.44000000
   O     76.39000000    74.38000000    42.57000000
   H     74.05000000    73.57000000    42.48000000
   H     75.29000000    71.75000000    44.29000000
   H     75.62000000    74.20000000    44.43000000
   H     76.42000000    75.27000000    42.94000000
   H     77.84000000    74.41000000    44.73000000
   H     77.47000000    72.75000000    45.31000000
   H     78.32000000    72.93000000    43.83000000
   N     77.25000000    70.62000000    43.11000000
   C     78.28000000    69.91000000    42.38000000
   C     77.84000000    68.96000000    41.28000000
   O     78.39000000    69.04000000    40.18000000
   C     79.20000000    69.14000000    43.33000000
   C     79.96000000    70.09000000    44.25000000
   C     80.21000000    68.41000000    42.45000000
   C     80.80000000    69.42000000    45.33000000
   H     77.14000000    70.41000000    44.09000000
   H     78.97000000    70.62000000    41.91000000
   H     78.67000000    68.39000000    43.92000000
   H     79.28000000    70.73000000    44.82000000
   H     80.37000000    70.78000000    43.52000000
   H     80.66000000    69.13000000    41.77000000
   H     81.08000000    68.31000000    43.10000000
   H     79.89000000    67.50000000    41.94000000
   H     81.78000000    69.17000000    44.94000000
   H     80.94000000    70.14000000    46.14000000
   H     80.28000000    68.54000000    45.70000000
   N     76.81000000    68.18000000    41.58000000
   C     76.23000000    67.09000000    40.81000000
   C     76.08000000    65.74000000    41.48000000
   O     75.45000000    65.56000000    42.52000000
   C     74.84000000    67.50000000    40.32000000
   C     74.78000000    68.74000000    39.43000000
   O     74.23000000    66.46000000    39.59000000
   H     76.47000000    68.31000000    42.52000000
   H     76.75000000    67.00000000    39.85000000
   H     74.23000000    67.62000000    41.21000000
   H     73.29000000    66.68000000    39.55000000
   H     75.06000000    69.67000000    39.92000000
   H     75.35000000    68.66000000    38.50000000
   H     73.75000000    68.77000000    39.06000000
   N     76.59000000    64.69000000    40.82000000
   C     76.26000000    63.30000000    41.08000000
   C     77.38000000    62.70000000    41.91000000
   O     77.14000000    61.69000000    42.56000000
   C     75.89000000    62.52000000    39.82000000
   C     75.73000000    61.00000000    39.97000000
   O     76.91000000    62.66000000    38.86000000
   H     77.10000000    64.86000000    39.97000000
   H     75.43000000    63.34000000    41.79000000
   H     74.95000000    62.96000000    39.49000000
   H     76.47000000    62.56000000    38.02000000
   H     75.27000000    60.51000000    39.11000000
   H     76.71000000    60.55000000    40.10000000
   H     75.18000000    60.77000000    40.88000000
   N     78.60000000    63.24000000    41.92000000
   C     79.72000000    63.03000000    42.81000000
   C     80.55000000    64.25000000    43.18000000
   O     80.46000000    65.30000000    42.55000000
   C     80.56000000    61.88000000    42.27000000
   C     81.00000000    61.98000000    40.81000000
   C     82.06000000    60.96000000    40.42000000
   C     82.50000000    60.98000000    38.96000000
   N     83.50000000    59.96000000    38.60000000
   H     78.69000000    64.06000000    41.34000000
   H     79.34000000    62.76000000    43.80000000
   H     79.96000000    60.98000000    42.39000000
   H     81.45000000    61.77000000    42.89000000
   H     81.42000000    62.97000000    40.59000000
   H     80.07000000    61.78000000    40.27000000
   H     81.68000000    59.94000000    40.54000000
   H     82.91000000    61.04000000    41.10000000
   H     82.94000000    61.94000000    38.71000000
   H     81.66000000    60.86000000    38.27000000
   H     83.61000000    59.83000000    37.60000000
   H     84.39000000    60.28000000    38.95000000
   H     83.38000000    59.04000000    38.98000000
   N     81.20000000    64.19000000    44.35000000
   C     81.82000000    65.28000000    45.08000000
   C     81.37000000    65.67000000    46.48000000
   O     81.73000000    66.76000000    46.90000000
   C     83.34000000    65.22000000    45.05000000
   C     83.85000000    65.25000000    43.61000000
   C     85.36000000    65.40000000    43.56000000
   O     86.00000000    64.33000000    43.43000000
   O     85.92000000    66.51000000    43.43000000
   H     81.14000000    63.31000000    44.85000000
   H     81.51000000    66.18000000    44.56000000
   H     83.80000000    64.38000000    45.55000000
   H     83.84000000    66.10000000    45.45000000
   H     83.45000000    66.02000000    42.95000000
   H     83.49000000    64.30000000    43.20000000
   N     80.64000000    64.91000000    47.31000000
   C     79.61000000    63.95000000    46.98000000
   H     78.73800000    64.47400000    46.58900000
   H     79.98600000    63.25800000    46.22600000
   H     79.32900000    63.39600000    47.87500000
   H     80.78000000    65.17000000    48.28000000
  Ca     66.86000000    72.30000000    41.04000000
   O     64.60000000    71.74000000    39.45000000
   H     64.25000000    70.85000000    39.48000000
   H     64.05000000    72.19000000    38.81000000
   O     65.08000000    70.47000000    41.83000000
   H     64.23000000    70.91000000    41.80000000
   H     64.88000000    69.58000000    42.10000000
   O     68.66000000    74.05000000    41.88000000
   H     69.11000000    73.70000000    42.65000000
   H     68.66000000    75.00000000    42.02000000
   O     64.79000000    73.57000000    42.29000000
   H     64.04000000    73.40000000    42.86000000
   H     64.48000000    74.26000000    41.69000000
   O     66.42000000    74.75000000    39.94000000
   H     65.79000000    75.35000000    40.34000000
   H     66.36000000    74.92000000    39.00000000

Ca 1.00



