%chk=loop4.holoCaM-CaMKII.run90.water2.chk
%nprocshared=20
%mem=10GB
%nosave
#b3lyp/svp scf=(tight,noincore,xqc) Test 
#IOP(5/87=12) Density=Current Pop=(MK,readradii) iop(6/33=2) iop(6/42=6)

loop4.holoCaM-CaMKII.run90.water2 

   -3  1 
   C     59.52000000    23.88000000     7.73500000
   C     59.15000000    24.40000000     9.11500000
   O     59.61000000    25.49000000     9.45500000
   H     60.55100000    23.52700000     7.74500000
   H     58.85800000    23.05700000     7.46700000
   H     59.41800000    24.68200000     7.00400000
   N     58.46000000    23.62000000     9.94500000
   C     58.08000000    23.90000000    11.31500000
   C     59.29000000    23.83000000    12.23500000
   O     59.99000000    22.82000000    12.16500000
   C     57.02000000    22.93000000    11.83500000
   C     56.58000000    23.22000000    13.26500000
   O     56.55000000    24.43000000    13.58500000
   O     56.59000000    22.30000000    14.11500000
   H     58.29000000    22.67000000     9.64500000
   H     57.65000000    24.90000000    11.30500000
   H     57.38000000    21.93000000    11.61500000
   H     56.18000000    22.98000000    11.13500000
   N     59.40000000    24.75000000    13.19500000
   C     60.50000000    24.84000000    14.13500000
   C     60.07000000    24.85000000    15.59500000
   O     60.88000000    25.12000000    16.48500000
   C     61.35000000    26.06000000    13.78500000
   C     60.83000000    27.42000000    14.25500000
   C     61.79000000    26.00000000    12.32500000
   C     61.56000000    28.66000000    13.74500000
   H     58.70000000    25.49000000    13.18500000
   H     61.14000000    23.97000000    13.99500000
   H     62.25000000    26.02000000    14.39500000
   H     60.93000000    27.39000000    15.33500000
   H     59.77000000    27.56000000    14.02500000
   H     60.95000000    26.14000000    11.64500000
   H     62.44000000    26.81000000    12.01500000
   H     62.35000000    25.09000000    12.12500000
   H     61.30000000    29.56000000    14.29500000
   H     62.64000000    28.57000000    13.84500000
   H     61.22000000    28.80000000    12.71500000
   N     58.81000000    24.62000000    15.94500000
   C     58.28000000    24.81000000    17.28500000
   C     57.73000000    23.50000000    17.84500000
   O     57.33000000    23.39000000    18.99500000
   C     57.23000000    25.91000000    17.27500000
   C     57.59000000    27.17000000    16.50500000
   O     58.62000000    27.80000000    16.83500000
   O     56.73000000    27.48000000    15.65500000
   H     58.15000000    24.63000000    15.17500000
   H     59.10000000    25.16000000    17.91500000
   H     56.95000000    26.12000000    18.30500000
   H     56.38000000    25.46000000    16.76500000
   N     57.59000000    22.48000000    16.99500000
   C     56.86000000    21.24000000    17.18500000
   C     55.35000000    21.36000000    17.25500000
   O     54.74000000    20.80000000    18.15500000
   H     57.77000000    22.65000000    16.01500000
   H     57.25000000    20.62000000    18.00500000
   H     56.94000000    20.58000000    16.32500000
   N     54.77000000    22.13000000    16.32500000
   C     53.34000000    22.27000000    16.09500000
   C     52.95000000    21.78000000    14.71500000
   O     51.76000000    21.54000000    14.49500000
   C     52.92000000    23.72000000    16.31500000
   C     53.61000000    24.77000000    15.45500000
   O     53.62000000    24.66000000    14.21500000
   O     54.14000000    25.76000000    16.00500000
   H     55.44000000    22.60000000    15.73500000
   H     52.84000000    21.58000000    16.77500000
   H     52.96000000    24.12000000    17.32500000
   H     51.90000000    23.67000000    15.92500000
   N     53.91000000    21.50000000    13.83500000
   C     53.62000000    20.94000000    12.53500000
   C     52.71000000    21.84000000    11.71500000
   O     51.90000000    21.36000000    10.91500000
   H     54.87000000    21.75000000    14.03500000
   H     53.11000000    19.98000000    12.53500000
   H     54.54000000    20.87000000    11.94500000
   N     52.80000000    23.16000000    11.86500000
   C     52.29000000    24.22000000    11.02500000
   C     53.26000000    25.35000000    10.70500000
   O     54.16000000    25.61000000    11.49500000
   C     51.04000000    24.82000000    11.66500000
   C     49.80000000    23.94000000    11.58500000
   C     48.46000000    24.57000000    11.93500000
   N     48.03000000    24.53000000    13.20500000
   O     47.76000000    25.12000000    11.09500000
   H     53.56000000    23.47000000    12.45500000
   H     52.08000000    23.76000000    10.06500000
   H     50.83000000    25.80000000    11.24500000
   H     51.21000000    25.03000000    12.71500000
   H     49.95000000    23.06000000    12.21500000
   H     49.71000000    23.60000000    10.55500000
   H     48.48000000    23.81000000    13.74500000
   H     47.23000000    25.05000000    13.53500000
   N     53.20000000    25.88000000     9.48500000
   C     54.22000000    26.75000000     8.91500000
   C     53.61000000    28.14000000     8.97500000
   O     52.69000000    28.44000000     8.21500000
   C     54.57000000    26.31000000     7.49500000
   C     55.79000000    27.10000000     7.02500000
   C     54.93000000    24.84000000     7.38500000
   H     52.37000000    25.66000000     8.94500000
   H     55.11000000    26.78000000     9.54500000
   H     53.72000000    26.46000000     6.83500000
   H     56.70000000    26.66000000     7.43500000
   H     55.79000000    27.10000000     5.93500000
   H     55.77000000    28.11000000     7.44500000
   H     55.60000000    24.48000000     8.17500000
   H     54.03000000    24.23000000     7.44500000
   H     55.47000000    24.71000000     6.44500000
   N     54.17000000    29.04000000     9.78500000
   C     53.89000000    30.46000000     9.69500000
   C     54.38000000    31.02000000     8.36500000
   O     55.19000000    30.44000000     7.65500000
   C     54.52000000    31.14000000    10.90500000
   C     53.99000000    32.54000000    11.18500000
   N     52.68000000    32.79000000    11.15500000
   O     54.88000000    33.39000000    11.11500000
   H     54.93000000    28.71000000    10.37500000
   H     52.82000000    30.66000000     9.76500000
   H     55.60000000    31.19000000    10.98500000
   H     54.25000000    30.69000000    11.86500000
   H     51.97000000    32.13000000    10.86500000
   H     52.29000000    33.72000000    11.21500000
   N     53.98000000    32.26000000     8.06500000
   C     54.64000000    33.10000000     7.08500000
   C     56.12000000    33.20000000     7.42500000
   O     56.98000000    33.00000000     6.57500000
   C     54.04000000    34.49000000     6.97500000
   C     54.77000000    35.34000000     5.96500000
   C     54.74000000    34.98000000     4.61500000
   C     55.46000000    36.49000000     6.37500000
   C     55.37000000    35.70000000     3.59500000
   C     56.22000000    37.14000000     5.39500000
   C     56.16000000    36.79000000     4.03500000
   O     56.97000000    37.53000000     3.22500000
   H     53.14000000    32.61000000     8.50500000
   H     54.60000000    32.73000000     6.05500000
   H     54.09000000    35.01000000     7.93500000
   H     52.99000000    34.34000000     6.71500000
   H     54.26000000    34.04000000     4.37500000
   H     55.39000000    36.85000000     7.39500000
   H     55.43000000    35.42000000     2.55500000
   H     56.80000000    37.99000000     5.73500000
   H     57.49000000    38.15000000     3.74500000
   N     56.44000000    33.37000000     8.71500000
   C     57.85000000    33.45000000     9.05500000
   C     58.64000000    32.16000000     9.00500000
   O     59.87000000    32.18000000     9.08500000
   C     58.03000000    34.10000000    10.42500000
   C     57.37000000    35.48000000    10.35500000
   C     57.81000000    36.45000000    11.44500000
   O     58.99000000    36.84000000    11.55500000
   O     56.95000000    36.84000000    12.26500000
   H     55.79000000    33.64000000     9.43500000
   H     58.29000000    34.17000000     8.35500000
   H     59.09000000    34.25000000    10.61500000
   H     57.65000000    33.57000000    11.29500000
   H     56.29000000    35.33000000    10.35500000
   H     57.69000000    36.00000000     9.45500000
   N     58.07000000    30.97000000     8.78500000
   C     58.75000000    29.70000000     8.63500000
   C     58.80000000    29.35000000     7.15500000
   O     59.65000000    28.57000000     6.74500000
   C     58.06000000    28.65000000     9.50500000
   C     58.36000000    28.71000000    10.99500000
   C     57.37000000    27.88000000    11.80500000
   O     57.71000000    27.09000000    12.70500000
   O     56.14000000    27.91000000    11.60500000
   H     57.07000000    31.00000000     8.70500000
   H     59.77000000    29.69000000     9.01500000
   H     58.36000000    27.69000000     9.06500000
   H     56.99000000    28.68000000     9.30500000
   H     58.33000000    29.75000000    11.33500000
   H     59.40000000    28.47000000    11.23500000
   N     57.90000000    29.92000000     6.33500000
   C     57.91000000    29.90000000     4.88500000
   H     58.54300000    30.70700000     4.51500000
   H     58.30100000    28.94400000     4.53700000
   H     56.89500000    30.03500000     4.51200000
   H     57.13000000    30.35000000     6.82500000
  Ca     55.27000000    26.71000000    13.65000000
   O     54.44000000    28.93000000    14.69000000
   H     54.55000000    29.88000000    14.65000000
   H     54.35000000    28.74000000    15.63000000
   O     52.48000000    27.07000000    13.49000000
   H     51.78000000    27.35000000    14.08000000
   H     52.41000000    26.12000000    13.47000000

Ca 1.00



