%chk=loop3.apoCaM-CA-Ng.Init295.run96.water5.chk
%nprocshared=20
%mem=10GB
%nosave
#b3lyp/svp scf=(tight,noincore,xqc) Test 
#IOP(5/87=12) Density=Current Pop=(MK,readradii) iop(6/33=2) iop(6/42=6)

loop3.apoCaM-CA-Ng.Init295.run96.water5 

   0  1 
   C     90.84000000    83.78000000    80.94000000
   C     89.92000000    82.71000000    81.51000000
   O     88.96000000    82.34000000    80.84000000
   H     91.78900000    83.32700000    80.65300000
   H     90.37400000    84.23200000    80.06500000
   H     91.01800000    84.54700000    81.69400000
   N     90.20000000    82.25000000    82.73000000
   C     89.42000000    81.23000000    83.41000000
   C     88.83000000    81.79000000    84.69000000
   O     89.52000000    82.45000000    85.47000000
   C     90.27000000    79.99000000    83.61000000
   C     89.32000000    78.86000000    83.98000000
   O     89.07000000    77.91000000    83.20000000
   O     88.90000000    78.77000000    85.15000000
   H     90.95000000    82.65000000    83.27000000
   H     88.60000000    80.89000000    82.77000000
   H     91.08000000    80.11000000    84.34000000
   H     90.83000000    79.79000000    82.70000000
   N     87.66000000    81.33000000    85.14000000
   C     87.06000000    81.91000000    86.33000000
   C     87.35000000    81.24000000    87.66000000
   O     86.86000000    81.70000000    88.70000000
   C     85.55000000    82.02000000    86.12000000
   C     84.83000000    80.71000000    85.85000000
   C     84.16000000    80.08000000    87.08000000
   C     83.73000000    78.66000000    86.73000000
   N     82.53000000    78.75000000    85.89000000
   H     87.17000000    80.68000000    84.55000000
   H     87.42000000    82.93000000    86.49000000
   H     85.46000000    82.67000000    85.25000000
   H     85.08000000    82.59000000    86.93000000
   H     85.51000000    80.03000000    85.33000000
   H     83.94000000    80.97000000    85.27000000
   H     83.24000000    80.65000000    87.23000000
   H     84.82000000    79.98000000    87.94000000
   H     83.43000000    78.21000000    87.68000000
   H     84.56000000    78.15000000    86.23000000
   H     82.67000000    79.14000000    84.97000000
   H     82.26000000    77.79000000    85.73000000
   H     81.79000000    79.29000000    86.30000000
   N     88.21000000    80.23000000    87.55000000
   C     88.63000000    79.50000000    88.72000000
   C     90.11000000    79.11000000    88.72000000
   O     90.66000000    79.11000000    89.82000000
   C     87.71000000    78.28000000    88.84000000
   C     87.61000000    77.32000000    87.67000000
   O     86.62000000    77.29000000    86.91000000
   O     88.52000000    76.48000000    87.51000000
   H     88.48000000    80.01000000    86.60000000
   H     88.38000000    80.05000000    89.63000000
   H     86.74000000    78.63000000    89.18000000
   H     87.85000000    77.62000000    89.70000000
   N     90.63000000    78.78000000    87.54000000
   C     92.01000000    78.37000000    87.48000000
   C     92.42000000    76.96000000    87.87000000
   O     93.58000000    76.75000000    88.22000000
   H     90.10000000    78.80000000    86.67000000
   H     92.58000000    79.13000000    88.03000000
   H     92.32000000    78.34000000    86.43000000
   N     91.49000000    75.99000000    87.87000000
   C     91.92000000    74.62000000    88.03000000
   C     92.68000000    74.08000000    86.83000000
   O     92.15000000    73.97000000    85.72000000
   C     90.70000000    73.75000000    88.33000000
   C     90.98000000    72.26000000    88.49000000
   N     89.90000000    71.47000000    88.43000000
   O     92.11000000    71.88000000    88.76000000
   H     90.63000000    76.21000000    87.39000000
   H     92.55000000    74.55000000    88.92000000
   H     89.92000000    73.83000000    87.57000000
   H     90.21000000    74.16000000    89.21000000
   H     88.96000000    71.85000000    88.43000000
   H     90.16000000    70.51000000    88.60000000
   N     93.94000000    73.68000000    87.02000000
   C     94.80000000    73.08000000    86.02000000
   C     94.59000000    71.61000000    85.70000000
   O     95.25000000    70.99000000    84.87000000
   H     94.36000000    73.84000000    87.92000000
   H     95.80000000    73.17000000    86.43000000
   H     94.81000000    73.65000000    85.08000000
   N     93.56000000    70.99000000    86.28000000
   C     93.17000000    69.60000000    86.13000000
   C     91.98000000    69.41000000    85.21000000
   O     90.93000000    70.01000000    85.41000000
   C     92.76000000    69.04000000    87.49000000
   C     93.13000000    67.59000000    87.70000000
   C     92.11000000    66.63000000    87.65000000
   C     94.45000000    67.18000000    87.89000000
   C     92.41000000    65.27000000    87.76000000
   C     94.79000000    65.83000000    88.04000000
   C     93.76000000    64.87000000    87.89000000
   O     94.00000000    63.54000000    87.74000000
   H     93.10000000    71.50000000    87.03000000
   H     94.02000000    69.03000000    85.77000000
   H     91.69000000    69.15000000    87.69000000
   H     93.23000000    69.67000000    88.24000000
   H     91.07000000    66.91000000    87.56000000
   H     95.22000000    67.92000000    88.06000000
   H     91.64000000    64.52000000    87.80000000
   H     95.80000000    65.53000000    88.27000000
   H     94.96000000    63.43000000    87.71000000
   N     92.23000000    68.56000000    84.21000000
   C     91.34000000    68.09000000    83.17000000
   C     90.21000000    67.20000000    83.67000000
   O     89.81000000    67.23000000    84.83000000
   C     91.00000000    69.21000000    82.19000000
   C     90.01000000    68.76000000    81.13000000
   C     92.32000000    69.78000000    81.67000000
   C     89.53000000    69.82000000    80.14000000
   H     93.14000000    68.12000000    84.17000000
   H     91.92000000    67.39000000    82.56000000
   H     90.48000000    70.00000000    82.74000000
   H     89.10000000    68.46000000    81.64000000
   H     90.46000000    67.95000000    80.56000000
   H     92.12000000    70.69000000    81.11000000
   H     92.99000000    70.03000000    82.50000000
   H     92.80000000    69.00000000    81.07000000
   H     90.40000000    70.22000000    79.64000000
   H     88.79000000    69.53000000    79.39000000
   H     89.07000000    70.66000000    80.68000000
   N     89.77000000    66.21000000    82.89000000
   C     88.89000000    65.13000000    83.27000000
   C     89.06000000    63.83000000    82.49000000
   O     88.13000000    63.03000000    82.53000000
   C     87.46000000    65.66000000    83.28000000
   O     86.99000000    65.88000000    81.97000000
   H     90.05000000    66.19000000    81.92000000
   H     89.15000000    64.99000000    84.32000000
   H     87.43000000    66.62000000    83.78000000
   H     86.75000000    64.98000000    83.76000000
   H     86.97000000    66.81000000    81.71000000
   N     90.13000000    63.70000000    81.70000000
   C     90.52000000    62.58000000    80.86000000
   C     89.42000000    62.01000000    79.98000000
   O     88.89000000    60.93000000    80.24000000
   C     91.31000000    61.57000000    81.69000000
   H     90.89000000    64.31000000    81.96000000
   H     91.17000000    62.98000000    80.08000000
   H     92.09000000    62.10000000    82.23000000
   H     90.56000000    61.13000000    82.35000000
   H     91.82000000    60.93000000    80.97000000
   N     89.15000000    62.60000000    78.81000000
   C     89.39000000    63.95000000    78.35000000
   C     89.20000000    63.98000000    76.84000000
   O     88.52000000    63.14000000    76.26000000
   C     88.56000000    65.00000000    79.08000000
   H     88.53000000    62.08000000    78.20000000
   H     90.42000000    64.20000000    78.60000000
   H     88.14000000    65.66000000    78.32000000
   H     87.79000000    64.48000000    79.66000000
   H     89.19000000    65.50000000    79.82000000
   N     89.82000000    64.90000000    76.10000000
   C     90.61000000    66.03000000    76.55000000
   C     92.10000000    65.73000000    76.64000000
   O     92.78000000    66.25000000    77.52000000
   C     90.35000000    67.30000000    75.74000000
   C     88.87000000    67.65000000    75.75000000
   C     88.43000000    68.75000000    74.79000000
   O     87.58000000    68.57000000    73.89000000
   O     88.93000000    69.87000000    75.04000000
   H     89.48000000    64.98000000    75.15000000
   H     90.42000000    66.19000000    77.61000000
   H     90.73000000    67.18000000    74.73000000
   H     90.87000000    68.10000000    76.28000000
   H     88.79000000    67.99000000    76.78000000
   H     88.22000000    66.77000000    75.73000000
   N     92.54000000    64.75000000    75.85000000
   C     93.92000000    64.27000000    75.86000000
   H     94.55500000    65.00100000    76.36100000
   H     93.97100000    63.32000000    76.39200000
   H     94.26500000    64.13200000    74.83500000
   H     91.99000000    64.42000000    75.07000000
  Ca     87.93000000    76.29000000    84.92000000
   O     86.04000000    77.79000000    83.54000000
   H     86.28000000    78.43000000    82.87000000
   H     85.11000000    77.96000000    83.71000000
   O     87.96000000    73.73000000    85.64000000
   H     87.80000000    73.31000000    86.48000000
   H     88.44000000    73.07000000    85.13000000
   O     90.60000000    75.88000000    84.70000000
   H     90.98000000    75.01000000    84.79000000
   H     91.14000000    76.30000000    84.03000000
   O     85.46000000    75.02000000    84.85000000
   H     84.66000000    75.46000000    84.56000000
   H     85.45000000    74.18000000    84.40000000
   O     87.33000000    74.90000000    82.61000000
   H     87.27000000    73.95000000    82.71000000
   H     87.16000000    75.05000000    81.68000000

Ca 1.00



