%chk=loop2.apoCaM-CA-Ng.Init31.run53.water4.chk
%nprocshared=20
%mem=10GB
%nosave
#b3lyp/svp scf=(tight,noincore,xqc) Test 
#IOP(5/87=12) Density=Current Pop=(MK,readradii) iop(6/33=2) iop(6/42=6)

loop2.apoCaM-CA-Ng.Init31.run53.water4 

   -2  1 
   C    114.05000000    75.56000000    18.45000000
   C    113.28000000    76.00000000    17.22000000
   O    112.52000000    75.16000000    16.72000000
   H    114.95100000    76.16600000    18.55000000
   H    113.42700000    75.68800000    19.33500000
   H    114.32800000    74.51100000    18.34900000
   N    113.45000000    77.16000000    16.59000000
   C    114.21000000    78.34000000    16.95000000
   C    115.10000000    78.96000000    15.88000000
   O    114.65000000    79.11000000    14.74000000
   C    113.32000000    79.48000000    17.44000000
   C    112.12000000    79.89000000    16.59000000
   O    111.92000000    79.40000000    15.46000000
   O    111.34000000    80.75000000    17.03000000
   H    112.88000000    77.26000000    15.76000000
   H    114.89000000    77.98000000    17.72000000
   H    113.86000000    80.40000000    17.68000000
   H    112.96000000    79.19000000    18.42000000
   N    116.29000000    79.36000000    16.33000000
   C    117.29000000    80.08000000    15.57000000
   C    116.97000000    81.47000000    15.05000000
   O    117.85000000    82.31000000    14.87000000
   C    117.78000000    79.15000000    14.46000000
   H    116.64000000    78.96000000    17.19000000
   H    118.14000000    80.23000000    16.23000000
   H    118.09000000    78.26000000    15.02000000
   H    117.05000000    78.88000000    13.69000000
   H    118.64000000    79.59000000    13.96000000
   N    115.67000000    81.75000000    14.92000000
   C    115.04000000    82.97000000    14.45000000
   C    113.54000000    83.04000000    14.68000000
   O    112.95000000    81.97000000    14.57000000
   C    115.43000000    83.30000000    13.01000000
   C    115.29000000    82.14000000    12.04000000
   O    116.27000000    81.86000000    11.31000000
   O    114.21000000    81.51000000    12.05000000
   H    114.96000000    81.03000000    14.93000000
   H    115.45000000    83.67000000    15.17000000
   H    116.48000000    83.59000000    13.02000000
   H    114.91000000    84.15000000    12.59000000
   N    112.97000000    84.23000000    14.92000000
   C    111.55000000    84.51000000    14.82000000
   C    111.05000000    84.70000000    13.40000000
   O    111.72000000    85.40000000    12.64000000
   H    113.58000000    85.02000000    15.07000000
   H    111.31000000    85.39000000    15.42000000
   H    111.08000000    83.61000000    15.21000000
   N    109.83000000    84.27000000    13.06000000
   C    109.32000000    84.24000000    11.71000000
   C    107.96000000    84.92000000    11.62000000
   O    106.98000000    84.31000000    12.03000000
   C    109.31000000    82.75000000    11.38000000
   C    110.74000000    82.22000000    11.35000000
   N    111.59000000    82.81000000    10.51000000
   O    111.07000000    81.29000000    12.08000000
   H    109.28000000    83.88000000    13.81000000
   H    109.98000000    84.83000000    11.06000000
   H    108.78000000    82.64000000    10.43000000
   H    108.72000000    82.15000000    12.08000000
   H    111.29000000    83.44000000     9.78000000
   H    112.56000000    82.55000000    10.63000000
   N    107.89000000    86.12000000    11.04000000
   C    106.68000000    86.90000000    10.84000000
   C    105.74000000    86.10000000     9.95000000
   O    105.93000000    85.93000000     8.74000000
   H    108.73000000    86.58000000    10.74000000
   H    107.00000000    87.84000000    10.39000000
   H    106.21000000    87.10000000    11.81000000
   N    104.61000000    85.62000000    10.46000000
   C    103.98000000    85.78000000    11.75000000
   C    103.55000000    84.45000000    12.37000000
   O    103.57000000    84.26000000    13.58000000
   C    102.86000000    86.81000000    11.64000000
   C    101.95000000    86.90000000    12.86000000
   O    103.35000000    88.12000000    11.46000000
   H    104.03000000    85.20000000     9.75000000
   H    104.56000000    86.29000000    12.52000000
   H    102.24000000    86.52000000    10.79000000
   H    102.53000000    88.62000000    11.47000000
   H    102.53000000    86.71000000    13.76000000
   H    101.54000000    87.90000000    12.89000000
   H    101.07000000    86.29000000    12.65000000
   N    103.45000000    83.42000000    11.52000000
   C    103.00000000    82.08000000    11.85000000
   C    101.54000000    82.04000000    12.28000000
   O    101.22000000    82.32000000    13.43000000
   C    103.88000000    81.25000000    12.78000000
   C    105.37000000    81.26000000    12.42000000
   C    103.42000000    79.80000000    12.88000000
   C    105.66000000    80.92000000    10.96000000
   H    103.78000000    83.68000000    10.60000000
   H    103.15000000    81.65000000    10.86000000
   H    103.80000000    81.67000000    13.78000000
   H    106.03000000    80.83000000    13.17000000
   H    105.62000000    82.31000000    12.54000000
   H    102.45000000    79.68000000    13.36000000
   H    103.44000000    79.33000000    11.89000000
   H    104.15000000    79.26000000    13.49000000
   H    106.71000000    80.62000000    10.89000000
   H    105.15000000    80.03000000    10.59000000
   H    105.55000000    81.82000000    10.35000000
   N    100.67000000    81.60000000    11.37000000
   C    100.74000000    81.15000000     9.99000000
   C    100.73000000    79.63000000     9.94000000
   O    101.58000000    79.05000000     9.26000000
   C     99.58000000    81.79000000     9.23000000
   C     98.16000000    81.45000000     9.66000000
   O     97.96000000    81.03000000    10.82000000
   O     97.24000000    81.77000000     8.88000000
   H     99.76000000    81.45000000    11.77000000
   H    101.65000000    81.51000000     9.51000000
   H     99.61000000    81.49000000     8.18000000
   H     99.70000000    82.87000000     9.28000000
   N     99.85000000    78.95000000    10.67000000
   C     99.88000000    77.53000000    10.96000000
   C     98.95000000    76.72000000    10.06000000
   O     97.98000000    77.30000000     9.58000000
   C     99.75000000    77.37000000    12.47000000
   C     98.37000000    77.66000000    13.02000000
   C     98.14000000    78.94000000    13.54000000
   C     97.44000000    76.64000000    13.24000000
   C     96.95000000    79.25000000    14.20000000
   C     96.20000000    76.92000000    13.83000000
   C     96.00000000    78.22000000    14.31000000
   H     99.05000000    79.46000000    11.01000000
   H    100.89000000    77.19000000    10.77000000
   H    100.48000000    78.02000000    12.95000000
   H    100.03000000    76.35000000    12.75000000
   H     98.82000000    79.75000000    13.31000000
   H     97.61000000    75.64000000    12.87000000
   H     96.73000000    80.25000000    14.56000000
   H     95.46000000    76.14000000    13.89000000
   H     95.03000000    78.37000000    14.75000000
   N     99.03000000    75.41000000     9.82000000
   C     99.99000000    74.42000000    10.27000000
   C    101.27000000    74.40000000     9.45000000
   O    101.36000000    75.23000000     8.55000000
   C     99.26000000    73.07000000    10.22000000
   C     98.25000000    73.22000000     9.09000000
   C     97.94000000    74.72000000     9.15000000
   H    100.40000000    74.64000000    11.25000000
   H     99.91000000    72.20000000    10.16000000
   H     98.69000000    72.98000000    11.14000000
   H     98.76000000    73.05000000     8.15000000
   H     97.35000000    72.63000000     9.20000000
   H     97.62000000    75.11000000     8.19000000
   H     97.05000000    74.80000000     9.77000000
   N    102.23000000    73.53000000     9.75000000
   C    103.50000000    73.44000000     9.06000000
   C    104.74000000    73.60000000     9.92000000
   O    105.78000000    73.74000000     9.28000000
   C    103.56000000    72.12000000     8.30000000
   C    102.92000000    72.11000000     6.91000000
   C    103.86000000    72.81000000     5.94000000
   O    103.67000000    74.04000000     5.76000000
   O    104.74000000    72.19000000     5.31000000
   H    102.02000000    72.81000000    10.43000000
   H    103.55000000    74.29000000     8.38000000
   H    103.07000000    71.37000000     8.92000000
   H    104.60000000    71.80000000     8.25000000
   H    102.01000000    72.72000000     6.85000000
   H    102.60000000    71.13000000     6.56000000
   N    104.75000000    73.68000000    11.25000000
   C    103.78000000    73.97000000    12.29000000
   H    102.84100000    73.46700000    12.06100000
   H    104.15700000    73.61500000    13.24900000
   H    103.61200000    75.04600000    12.34100000
   H    105.69000000    73.62000000    11.63000000
  Ca    112.80900000    79.65000000    13.00000000
   O    110.45900000    78.46000000    13.31000000
   H    109.90900000    78.12000000    12.59000000
   H    110.34900000    77.81000000    14.01000000
   O    113.12900000    77.07000000    12.99000000
   H    112.66900000    76.24000000    12.90000000
   H    114.05900000    76.84000000    12.92000000
   O    115.04900000    78.85000000    11.56000000
   H    115.01900000    79.62000000    10.99000000
   H    115.08900000    78.10000000    10.96000000
   O    112.13900000    78.80000000    10.49000000
   H    111.22900000    78.96000000    10.22000000
   H    112.37900000    77.99000000    10.05000000

Ca 1.00



