%chk=loop4.apoCaM-CA-Ng.Init295.run39.water2.chk
%nprocshared=20
%mem=10GB
%nosave
#b3lyp/svp scf=(tight,noincore,xqc) Test 
#IOP(5/87=12) Density=Current Pop=(MK,readradii) iop(6/33=2) iop(6/42=6)

loop4.apoCaM-CA-Ng.Init295.run39.water2 

   -3  1 
   C     83.64000000    27.12000000    61.18000000
   C     84.86000000    26.26000000    61.46000000
   O     85.94000000    26.53000000    60.95000000
   H     82.82900000    26.82800000    61.84800000
   H     83.88800000    28.16800000    61.34700000
   H     83.32600000    26.98100000    60.14600000
   N     84.71000000    25.13000000    62.16000000
   C     85.77000000    24.28000000    62.65000000
   C     86.87000000    25.06000000    63.36000000
   O     88.05000000    24.89000000    63.09000000
   C     86.19000000    23.43000000    61.46000000
   C     85.12000000    22.64000000    60.72000000
   O     83.97000000    22.44000000    61.19000000
   O     85.43000000    22.29000000    59.57000000
   H     83.80000000    24.97000000    62.58000000
   H     85.32000000    23.60000000    63.38000000
   H     86.88000000    22.67000000    61.84000000
   H     86.66000000    24.20000000    60.85000000
   N     86.46000000    25.89000000    64.33000000
   C     87.22000000    26.69000000    65.27000000
   C     86.80000000    26.35000000    66.70000000
   O     85.75000000    26.82000000    67.13000000
   C     87.27000000    28.16000000    64.87000000
   C     87.54000000    28.35000000    63.38000000
   C     88.28000000    28.96000000    65.69000000
   C     87.90000000    29.79000000    63.02000000
   H     85.46000000    25.90000000    64.48000000
   H     88.26000000    26.39000000    65.14000000
   H     86.29000000    28.53000000    65.16000000
   H     86.66000000    28.07000000    62.81000000
   H     88.25000000    27.55000000    63.17000000
   H     88.13000000    28.85000000    66.77000000
   H     89.28000000    28.68000000    65.37000000
   H     88.02000000    30.01000000    65.54000000
   H     88.89000000    29.99000000    63.42000000
   H     87.95000000    29.80000000    61.93000000
   H     87.19000000    30.55000000    63.35000000
   N     87.53000000    25.62000000    67.54000000
   C     88.79000000    24.96000000    67.25000000
   C     88.62000000    23.59000000    66.61000000
   O     89.55000000    23.33000000    65.85000000
   C     89.60000000    24.84000000    68.53000000
   C     89.78000000    25.99000000    69.51000000
   O     89.10000000    26.00000000    70.56000000
   O     90.60000000    26.91000000    69.29000000
   H     87.07000000    25.59000000    68.44000000
   H     89.42000000    25.51000000    66.55000000
   H     90.56000000    24.41000000    68.24000000
   H     89.19000000    24.05000000    69.17000000
   N     87.52000000    22.87000000    66.88000000
   C     87.32000000    21.58000000    66.25000000
   C     88.40000000    20.56000000    66.56000000
   O     88.78000000    20.27000000    67.70000000
   H     86.84000000    23.23000000    67.53000000
   H     87.24000000    21.70000000    65.17000000
   H     86.33000000    21.21000000    66.50000000
   N     88.95000000    20.03000000    65.47000000
   C     90.00000000    19.04000000    65.50000000
   C     91.34000000    19.62000000    65.07000000
   O     92.43000000    19.17000000    65.43000000
   C     89.64000000    17.73000000    64.80000000
   C     89.12000000    17.94000000    63.38000000
   O     89.91000000    18.51000000    62.60000000
   O     87.92000000    17.63000000    63.21000000
   H     88.60000000    20.27000000    64.55000000
   H     90.16000000    18.78000000    66.55000000
   H     88.90000000    17.18000000    65.38000000
   H     90.55000000    17.13000000    64.72000000
   N     91.33000000    20.62000000    64.19000000
   C     92.40000000    21.41000000    63.63000000
   C     92.96000000    21.10000000    62.25000000
   O     93.79000000    21.84000000    61.74000000
   H     90.41000000    20.98000000    63.98000000
   H     93.18000000    21.55000000    64.38000000
   H     91.98000000    22.42000000    63.62000000
   N     92.52000000    20.03000000    61.58000000
   C     92.96000000    19.63000000    60.26000000
   C     92.82000000    20.67000000    59.16000000
   O     93.54000000    20.70000000    58.16000000
   C     94.37000000    19.07000000    60.30000000
   C     94.41000000    17.78000000    61.13000000
   C     95.69000000    16.98000000    60.97000000
   N     95.47000000    15.68000000    61.17000000
   O     96.79000000    17.46000000    60.68000000
   H     91.69000000    19.64000000    62.00000000
   H     92.29000000    18.83000000    59.94000000
   H     95.00000000    19.82000000    60.77000000
   H     94.72000000    18.91000000    59.28000000
   H     93.53000000    17.26000000    60.74000000
   H     94.24000000    17.88000000    62.20000000
   H     94.60000000    15.46000000    61.64000000
   H     96.23000000    15.01000000    61.13000000
   N     91.83000000    21.56000000    59.27000000
   C     91.68000000    22.70000000    58.39000000
   C     91.13000000    22.26000000    57.04000000
   O     90.41000000    21.28000000    56.93000000
   C     90.77000000    23.80000000    58.92000000
   C     89.40000000    23.33000000    59.41000000
   C     91.46000000    24.31000000    60.18000000
   H     91.19000000    21.46000000    60.04000000
   H     92.67000000    23.12000000    58.22000000
   H     90.63000000    24.61000000    58.19000000
   H     89.43000000    22.85000000    60.38000000
   H     88.79000000    24.23000000    59.48000000
   H     88.96000000    22.66000000    58.67000000
   H     91.09000000    25.30000000    60.45000000
   H     91.34000000    23.64000000    61.02000000
   H     92.51000000    24.58000000    60.08000000
   N     91.43000000    23.07000000    56.02000000
   C     91.07000000    22.74000000    54.66000000
   C     90.71000000    24.01000000    53.89000000
   O     91.56000000    24.88000000    53.80000000
   C     92.31000000    22.06000000    54.08000000
   C     92.42000000    21.95000000    52.57000000
   N     91.35000000    21.52000000    51.90000000
   O     93.44000000    22.31000000    51.98000000
   H     92.03000000    23.87000000    56.19000000
   H     90.25000000    22.03000000    54.63000000
   H     92.32000000    21.05000000    54.49000000
   H     93.18000000    22.61000000    54.45000000
   H     90.57000000    21.20000000    52.46000000
   H     91.46000000    21.48000000    50.89000000
   N     89.50000000    24.01000000    53.33000000
   C     88.84000000    25.08000000    52.60000000
   C     87.32000000    24.94000000    52.54000000
   O     86.75000000    25.33000000    51.52000000
   C     89.45000000    25.09000000    51.20000000
   C     89.87000000    26.49000000    50.85000000
   C     90.44000000    27.45000000    51.69000000
   C     89.94000000    26.75000000    49.47000000
   C     90.94000000    28.67000000    51.20000000
   C     90.45000000    27.95000000    48.95000000
   C     90.91000000    28.96000000    49.82000000
   O     91.55000000    30.04000000    49.30000000
   H     88.95000000    23.16000000    53.43000000
   H     88.98000000    26.06000000    53.04000000
   H     88.78000000    24.69000000    50.44000000
   H     90.36000000    24.50000000    51.17000000
   H     90.52000000    27.27000000    52.75000000
   H     89.67000000    25.97000000    48.78000000
   H     91.39000000    29.42000000    51.84000000
   H     90.58000000    28.05000000    47.88000000
   H     91.52000000    30.05000000    48.34000000
   N     86.68000000    24.48000000    53.61000000
   C     85.25000000    24.24000000    53.62000000
   C     84.40000000    25.50000000    53.45000000
   O     83.60000000    25.52000000    52.52000000
   C     84.89000000    23.27000000    54.74000000
   C     83.40000000    22.92000000    54.84000000
   C     83.17000000    21.80000000    55.85000000
   O     82.45000000    20.83000000    55.52000000
   O     83.74000000    21.88000000    56.96000000
   H     87.23000000    24.33000000    54.44000000
   H     85.00000000    23.60000000    52.77000000
   H     85.28000000    23.71000000    55.65000000
   H     85.45000000    22.38000000    54.47000000
   H     83.07000000    22.56000000    53.87000000
   H     82.81000000    23.79000000    55.14000000
   N     84.51000000    26.51000000    54.31000000
   C     85.18000000    26.65000000    55.59000000
   C     86.61000000    27.14000000    55.46000000
   O     87.03000000    27.40000000    54.33000000
   C     84.37000000    27.49000000    56.58000000
   C     82.97000000    27.07000000    57.00000000
   C     82.88000000    25.67000000    57.59000000
   O     81.81000000    25.03000000    57.57000000
   O     83.91000000    25.10000000    58.03000000
   H     83.96000000    27.32000000    54.05000000
   H     85.18000000    25.64000000    56.02000000
   H     84.38000000    28.51000000    56.20000000
   H     84.93000000    27.73000000    57.49000000
   H     82.27000000    27.17000000    56.17000000
   H     82.74000000    27.76000000    57.81000000
   N     87.31000000    27.36000000    56.57000000
   C     88.55000000    28.10000000    56.60000000
   H     89.31700000    27.54500000    56.05900000
   H     88.40500000    29.07200000    56.12900000
   H     88.86500000    28.24000000    57.63400000
   H     86.88000000    27.24000000    57.48000000
  Ca     82.62000000    22.92000000    58.92000000
   O     80.38000000    22.45000000    57.36000000
   H     80.50000000    22.88000000    56.51000000
   H     80.49000000    21.52000000    57.17000000
   O     82.95000000    20.26000000    59.21000000
   H     83.54000000    19.94000000    58.52000000
   H     83.12000000    19.68000000    59.95000000

Ca 1.00



