%chk=loop2.apoCaM-CA-Ng.Init293.run2.water7.chk
%nprocshared=20
%mem=10GB
%nosave
#b3lyp/svp scf=(tight,noincore,xqc) Test 
#IOP(5/87=12) Density=Current Pop=(MK,readradii) iop(6/33=2) iop(6/42=6)

loop2.apoCaM-CA-Ng.Init293.run2.water7 

   -2  1 
   C     51.29000000    35.01000000    10.93000000
   C     50.40000000    35.21000000     9.71000000
   O     49.51000000    34.39000000     9.53000000
   H     52.17800000    35.63500000    10.83800000
   H     50.74200000    35.28900000    11.83000000
   H     51.58800000    33.96400000    10.99500000
   N     50.61000000    36.25000000     8.90000000
   C     49.66000000    36.77000000     7.94000000
   C     49.52000000    35.79000000     6.78000000
   O     48.59000000    35.89000000     5.99000000
   C     50.20000000    38.12000000     7.49000000
   C     49.31000000    39.15000000     6.79000000
   O     49.85000000    40.13000000     6.23000000
   O     48.11000000    38.86000000     6.65000000
   H     51.54000000    36.64000000     8.96000000
   H     48.70000000    36.85000000     8.46000000
   H     50.96000000    37.79000000     6.78000000
   H     50.65000000    38.64000000     8.33000000
   N     50.43000000    34.82000000     6.65000000
   C     50.53000000    33.75000000     5.68000000
   C     49.31000000    32.85000000     5.57000000
   O     48.98000000    32.29000000     4.53000000
   C     51.02000000    34.17000000     4.30000000
   H     51.17000000    34.79000000     7.34000000
   H     51.40000000    33.20000000     6.03000000
   H     51.09000000    33.26000000     3.70000000
   H     50.51000000    35.02000000     3.84000000
   H     52.07000000    34.40000000     4.47000000
   N     48.60000000    32.64000000     6.68000000
   C     47.67000000    31.55000000     6.89000000
   C     46.43000000    31.57000000     6.00000000
   O     45.57000000    30.71000000     6.13000000
   C     48.36000000    30.19000000     6.81000000
   C     49.46000000    30.04000000     7.85000000
   O     50.60000000    29.70000000     7.45000000
   O     49.17000000    30.19000000     9.05000000
   H     48.78000000    33.15000000     7.54000000
   H     47.27000000    31.75000000     7.88000000
   H     48.71000000    30.06000000     5.79000000
   H     47.72000000    29.31000000     6.92000000
   N     46.26000000    32.47000000     5.03000000
   C     45.22000000    32.53000000     4.02000000
   C     44.18000000    33.61000000     4.28000000
   O     43.92000000    34.07000000     5.39000000
   H     46.98000000    33.15000000     4.80000000
   H     44.60000000    31.63000000     4.00000000
   H     45.81000000    32.83000000     3.16000000
   N     43.49000000    34.00000000     3.20000000
   C     42.64000000    35.17000000     3.13000000
   C     41.45000000    35.16000000     4.08000000
   O     40.79000000    34.13000000     4.16000000
   C     42.23000000    35.36000000     1.67000000
   C     41.07000000    34.57000000     1.10000000
   N     40.19000000    35.22000000     0.33000000
   O     40.97000000    33.36000000     1.31000000
   H     43.71000000    33.67000000     2.27000000
   H     43.29000000    36.00000000     3.39000000
   H     43.08000000    35.23000000     1.00000000
   H     42.04000000    36.43000000     1.56000000
   H     40.33000000    36.21000000     0.25000000
   H     39.24000000    34.92000000     0.15000000
   N     41.24000000    36.24000000     4.84000000
   C     40.55000000    36.20000000     6.11000000
   C     41.44000000    36.64000000     7.27000000
   O     41.22000000    37.70000000     7.85000000
   H     41.81000000    37.05000000     4.65000000
   H     40.06000000    35.25000000     6.32000000
   H     39.72000000    36.91000000     6.10000000
   N     42.54000000    35.90000000     7.42000000
   C     43.67000000    36.15000000     8.30000000
   C     43.46000000    35.62000000     9.71000000
   O     42.75000000    34.63000000     9.80000000
   C     44.95000000    35.50000000     7.81000000
   C     46.29000000    35.98000000     8.36000000
   O     45.06000000    34.09000000     7.85000000
   H     42.59000000    35.12000000     6.78000000
   H     43.83000000    37.23000000     8.34000000
   H     44.98000000    35.78000000     6.76000000
   H     44.89000000    33.84000000     6.94000000
   H     47.11000000    35.40000000     7.95000000
   H     46.42000000    37.05000000     8.19000000
   H     46.39000000    35.81000000     9.43000000
   N     43.99000000    36.24000000    10.77000000
   C     43.96000000    35.82000000    12.16000000
   C     45.03000000    34.75000000    12.33000000
   O     46.02000000    34.67000000    11.61000000
   C     44.23000000    37.06000000    13.01000000
   C     43.88000000    37.03000000    14.50000000
   C     45.64000000    37.60000000    12.82000000
   C     43.97000000    38.30000000    15.34000000
   H     44.51000000    37.06000000    10.51000000
   H     42.98000000    35.41000000    12.37000000
   H     43.64000000    37.87000000    12.57000000
   H     44.39000000    36.20000000    14.98000000
   H     42.83000000    36.78000000    14.40000000
   H     45.58000000    38.65000000    13.10000000
   H     46.31000000    37.23000000    13.60000000
   H     46.00000000    37.53000000    11.79000000
   H     44.98000000    38.58000000    15.61000000
   H     43.66000000    39.16000000    14.74000000
   H     43.45000000    38.18000000    16.29000000
   N     44.76000000    33.81000000    13.24000000
   C     45.60000000    32.65000000    13.46000000
   C     44.83000000    31.45000000    13.99000000
   O     45.33000000    30.74000000    14.87000000
   C     46.70000000    33.08000000    14.43000000
   C     47.96000000    32.24000000    14.33000000
   O     48.06000000    31.41000000    13.41000000
   O     48.82000000    32.29000000    15.24000000
   H     44.04000000    33.93000000    13.94000000
   H     46.04000000    32.36000000    12.51000000
   H     46.27000000    33.04000000    15.43000000
   H     47.07000000    34.06000000    14.12000000
   N     43.58000000    31.29000000    13.56000000
   C     42.78000000    30.18000000    14.05000000
   C     42.45000000    30.09000000    15.54000000
   O     42.62000000    29.02000000    16.11000000
   C     41.51000000    30.06000000    13.21000000
   C     40.73000000    28.80000000    13.49000000
   C     41.21000000    27.57000000    13.02000000
   C     39.66000000    28.91000000    14.39000000
   C     40.56000000    26.39000000    13.40000000
   C     39.06000000    27.71000000    14.79000000
   C     39.56000000    26.46000000    14.38000000
   H     43.29000000    31.93000000    12.84000000
   H     43.39000000    29.29000000    13.87000000
   H     41.84000000    30.00000000    12.17000000
   H     40.88000000    30.93000000    13.36000000
   H     41.97000000    27.48000000    12.25000000
   H     39.30000000    29.88000000    14.71000000
   H     40.92000000    25.41000000    13.14000000
   H     38.23000000    27.67000000    15.48000000
   H     39.08000000    25.56000000    14.71000000
   N     41.98000000    31.09000000    16.28000000
   C     41.65000000    32.43000000    15.84000000
   C     42.54000000    33.55000000    16.36000000
   O     42.73000000    34.53000000    15.64000000
   C     40.21000000    32.54000000    16.33000000
   C     40.30000000    31.91000000    17.72000000
   C     41.40000000    30.87000000    17.59000000
   H     41.54000000    32.48000000    14.76000000
   H     39.78000000    33.53000000    16.47000000
   H     39.60000000    31.86000000    15.74000000
   H     40.59000000    32.57000000    18.54000000
   H     39.30000000    31.53000000    17.95000000
   H     42.13000000    30.92000000    18.40000000
   H     40.90000000    29.90000000    17.54000000
   N     42.96000000    33.52000000    17.62000000
   C     43.52000000    34.60000000    18.42000000
   C     44.92000000    35.11000000    18.14000000
   O     45.79000000    34.32000000    17.76000000
   C     43.40000000    34.21000000    19.89000000
   C     44.17000000    32.98000000    20.37000000
   C     43.67000000    32.64000000    21.77000000
   O     43.45000000    33.54000000    22.61000000
   O     43.45000000    31.45000000    22.06000000
   H     42.74000000    32.64000000    18.06000000
   H     42.89000000    35.50000000    18.39000000
   H     42.35000000    34.06000000    20.13000000
   H     43.76000000    35.04000000    20.50000000
   H     45.24000000    33.10000000    20.22000000
   H     43.95000000    32.19000000    19.65000000
   N     45.20000000    36.36000000    18.49000000
   C     46.46000000    37.07000000    18.40000000
   H     47.21900000    36.41000000    17.98100000
   H     46.34200000    37.94100000    17.75600000
   H     46.76800000    37.39200000    19.39500000
   H     44.40000000    36.78000000    18.94000000
  Ca     48.42000000    29.92000000    11.43000000
   O     49.87000000    28.14000000    13.27000000
   H     49.81000000    28.22000000    14.22000000
   H     50.81000000    28.15000000    13.09000000
   O     47.63000000    32.64000000    10.69000000
   H     47.03000000    33.37000000    10.87000000
   H     48.47000000    33.06000000    10.50000000
   O     50.69000000    28.49000000    10.55000000
   H     50.73000000    27.54000000    10.48000000
   H     50.58000000    28.80000000     9.65000000
   O     46.71000000    28.75000000    13.48000000
   H     46.28000000    29.50000000    13.90000000
   H     46.68000000    28.06000000    14.14000000
   O     47.38000000    27.84000000    10.16000000
   H     47.80000000    27.27000000     9.50000000
   H     46.49000000    27.50000000    10.24000000
   O     50.91000000    30.98000000    12.03000000
   H     51.13000000    31.56000000    12.76000000
   H     51.67000000    30.42000000    11.92000000
   O     45.70000000    30.25000000    11.02000000
   H     45.23000000    29.44000000    11.23000000
   H     45.20000000    30.64000000    10.31000000

Ca 1.00



