%chk=loop4.apoCaM-CA-Ng.Init293.run98.water3.chk
%nprocshared=20
%mem=10GB
%nosave
#b3lyp/svp scf=(tight,noincore,xqc) Test 
#IOP(5/87=12) Density=Current Pop=(MK,readradii) iop(6/33=2) iop(6/42=6)

loop4.apoCaM-CA-Ng.Init293.run98.water3 

   -3  1 
   C     97.08000000    84.15000000    41.93000000
   C     98.14000000    83.07000000    42.11000000
   O     98.06000000    81.94000000    41.63000000
   H     96.19400000    83.88900000    42.51000000
   H     97.47200000    85.10600000    42.27700000
   H     96.81400000    84.22700000    40.87600000
   N     99.22000000    83.39000000    42.84000000
   C    100.39000000    82.65000000    43.25000000
   C    101.30000000    81.97000000    42.23000000
   O    102.38000000    81.48000000    42.53000000
   C    100.19000000    81.84000000    44.53000000
   C     99.08000000    80.82000000    44.36000000
   O     98.19000000    80.70000000    45.23000000
   O     99.06000000    80.04000000    43.38000000
   H     99.17000000    84.35000000    43.16000000
   H    101.01000000    83.44000000    43.66000000
   H     99.95000000    82.51000000    45.35000000
   H    101.14000000    81.44000000    44.87000000
   N    100.83000000    81.93000000    40.98000000
   C    101.33000000    81.12000000    39.89000000
   C    100.95000000    79.65000000    40.02000000
   O     99.89000000    79.28000000    40.51000000
   C    100.89000000    81.64000000    38.52000000
   C    101.58000000    82.98000000    38.28000000
   C     99.38000000    81.80000000    38.38000000
   C    101.74000000    83.15000000    36.77000000
   H     99.91000000    82.32000000    40.84000000
   H    102.42000000    81.08000000    39.95000000
   H    101.38000000    80.95000000    37.84000000
   H    102.56000000    83.05000000    38.75000000
   H    101.04000000    83.82000000    38.72000000
   H     99.07000000    81.88000000    37.34000000
   H     98.90000000    80.86000000    38.65000000
   H     98.93000000    82.59000000    38.98000000
   H    102.44000000    82.40000000    36.40000000
   H    100.81000000    83.04000000    36.21000000
   H    102.13000000    84.12000000    36.45000000
   N    101.82000000    78.73000000    39.61000000
   C    101.74000000    77.28000000    39.54000000
   C    101.56000000    76.83000000    40.99000000
   O    102.32000000    77.20000000    41.89000000
   C    102.96000000    76.68000000    38.86000000
   C    104.31000000    77.16000000    39.38000000
   O    104.62000000    78.37000000    39.39000000
   O    105.10000000    76.31000000    39.84000000
   H    102.72000000    79.14000000    39.41000000
   H    100.83000000    77.08000000    38.98000000
   H    102.94000000    76.78000000    37.78000000
   H    102.96000000    75.60000000    39.01000000
   N    100.56000000    76.06000000    41.42000000
   C     99.65000000    75.25000000    40.64000000
   C     98.44000000    75.88000000    39.96000000
   O     98.00000000    76.93000000    40.43000000
   H    100.68000000    75.79000000    42.38000000
   H     99.18000000    74.49000000    41.26000000
   H    100.18000000    74.67000000    39.89000000
   N     97.91000000    75.36000000    38.85000000
   C     98.23000000    74.16000000    38.09000000
   C     97.60000000    74.25000000    36.70000000
   O     96.39000000    74.10000000    36.56000000
   C     97.76000000    72.90000000    38.79000000
   C     98.21000000    71.66000000    38.04000000
   O     98.05000000    70.60000000    38.68000000
   O     99.00000000    71.54000000    37.07000000
   H     97.09000000    75.82000000    38.50000000
   H     99.32000000    74.11000000    38.01000000
   H     96.67000000    73.01000000    38.82000000
   H     98.14000000    72.80000000    39.81000000
   N     98.26000000    74.79000000    35.68000000
   C     99.69000000    75.03000000    35.72000000
   C    100.32000000    75.81000000    34.57000000
   O    101.55000000    75.84000000    34.50000000
   H     97.74000000    74.93000000    34.82000000
   H    100.16000000    74.05000000    35.82000000
   H     99.88000000    75.59000000    36.64000000
   N     99.51000000    76.35000000    33.66000000
   C     99.97000000    77.04000000    32.47000000
   C     99.25000000    78.37000000    32.33000000
   O     98.34000000    78.51000000    31.52000000
   C     99.86000000    76.12000000    31.26000000
   C    100.53000000    74.75000000    31.35000000
   C    100.63000000    73.89000000    30.10000000
   N     99.55000000    73.81000000    29.31000000
   O    101.64000000    73.23000000    29.87000000
   H     98.53000000    76.45000000    33.88000000
   H    101.00000000    77.38000000    32.59000000
   H    100.28000000    76.61000000    30.38000000
   H     98.80000000    75.92000000    31.11000000
   H     99.81000000    74.21000000    31.97000000
   H    101.54000000    74.85000000    31.73000000
   H     98.75000000    74.34000000    29.62000000
   H     99.53000000    73.24000000    28.48000000
   N     99.64000000    79.36000000    33.14000000
   C     99.12000000    80.71000000    33.08000000
   C     97.94000000    80.83000000    34.04000000
   O     98.08000000    80.58000000    35.24000000
   C    100.26000000    81.69000000    33.38000000
   C     99.73000000    83.08000000    33.72000000
   C    101.23000000    81.76000000    32.20000000
   H    100.23000000    79.17000000    33.94000000
   H     98.70000000    80.88000000    32.09000000
   H    100.79000000    81.38000000    34.27000000
   H     99.15000000    83.04000000    34.64000000
   H    100.46000000    83.89000000    33.73000000
   H     98.97000000    83.32000000    32.97000000
   H    101.63000000    80.76000000    32.04000000
   H    100.69000000    82.19000000    31.36000000
   H    102.01000000    82.46000000    32.47000000
   N     96.82000000    81.28000000    33.47000000
   C     95.66000000    81.91000000    34.06000000
   C     94.45000000    80.99000000    34.12000000
   O     93.48000000    81.34000000    34.79000000
   C     95.40000000    83.28000000    33.44000000
   C     94.00000000    83.86000000    33.60000000
   N     93.16000000    83.77000000    32.57000000
   O     93.70000000    84.53000000    34.58000000
   H     96.80000000    81.22000000    32.47000000
   H     95.97000000    82.08000000    35.09000000
   H     95.64000000    83.28000000    32.37000000
   H     96.03000000    84.05000000    33.88000000
   H     93.37000000    83.44000000    31.64000000
   H     92.22000000    84.11000000    32.76000000
   N     94.50000000    79.80000000    33.52000000
   C     93.49000000    78.76000000    33.61000000
   C     93.28000000    78.29000000    35.04000000
   O     94.21000000    78.12000000    35.82000000
   C     93.73000000    77.60000000    32.65000000
   C     94.09000000    78.07000000    31.26000000
   C     95.26000000    77.75000000    30.55000000
   C     93.08000000    78.86000000    30.72000000
   C     95.44000000    78.33000000    29.28000000
   C     93.25000000    79.25000000    29.38000000
   C     94.44000000    79.10000000    28.65000000
   O     94.59000000    79.76000000    27.47000000
   H     95.16000000    79.68000000    32.78000000
   H     92.60000000    79.37000000    33.42000000
   H     92.91000000    76.88000000    32.67000000
   H     94.57000000    77.03000000    33.05000000
   H     95.95000000    77.05000000    30.99000000
   H     92.14000000    79.19000000    31.15000000
   H     96.38000000    78.17000000    28.77000000
   H     92.53000000    79.81000000    28.81000000
   H     95.50000000    80.01000000    27.29000000
   N     92.00000000    78.27000000    35.41000000
   C     91.38000000    78.11000000    36.71000000
   C     91.76000000    79.17000000    37.73000000
   O     91.37000000    79.10000000    38.89000000
   C     91.79000000    76.75000000    37.26000000
   C     91.17000000    75.67000000    36.37000000
   C     91.64000000    74.29000000    36.82000000
   O     91.41000000    73.87000000    37.98000000
   O     92.33000000    73.64000000    36.01000000
   H     91.39000000    78.11000000    34.62000000
   H     90.30000000    78.06000000    36.58000000
   H     91.40000000    76.61000000    38.28000000
   H     92.83000000    76.78000000    37.58000000
   H     91.53000000    75.84000000    35.36000000
   H     90.10000000    75.81000000    36.28000000
   N     92.55000000    80.18000000    37.35000000
   C     92.86000000    81.27000000    38.26000000
   C     91.78000000    82.33000000    38.15000000
   O     91.30000000    82.82000000    39.17000000
   C     94.17000000    81.99000000    37.96000000
   C     95.37000000    81.09000000    37.66000000
   C     95.88000000    80.36000000    38.89000000
   O     96.79000000    79.53000000    38.69000000
   O     95.51000000    80.60000000    40.07000000
   H     92.84000000    80.17000000    36.39000000
   H     92.86000000    80.95000000    39.31000000
   H     94.39000000    82.77000000    38.70000000
   H     94.09000000    82.56000000    37.04000000
   H     96.19000000    81.71000000    37.30000000
   H     95.15000000    80.37000000    36.87000000
   N     91.35000000    82.57000000    36.91000000
   C     90.02000000    83.12000000    36.71000000
   H     89.34100000    82.70700000    37.45500000
   H     90.05500000    84.20500000    36.81300000
   H     89.66500000    82.86100000    35.71200000
   H     91.88000000    82.28000000    36.10000000
  Ca     97.56000000    79.43000000    41.41000000
   O     97.96000000    77.10000000    43.40000000
   H     98.69000000    76.48000000    43.33000000
   H     97.96000000    77.37000000    44.32000000
   O     96.12000000    80.06000000    43.82000000
   H     95.42000000    80.28000000    44.43000000
   H     96.92000000    80.25000000    44.30000000
   O     94.82000000    78.13000000    41.39000000
   H     94.07000000    77.55000000    41.28000000
   H     94.45000000    79.01000000    41.35000000

Ca 1.00



