%chk=loop1.holoCaM.run32.water2.chk
%nprocshared=20
%mem=10GB
%nosave
#b3lyp/svp scf=(tight,noincore,xqc) Test 
#IOP(5/87=12) Density=Current Pop=(MK,readradii) iop(6/33=2) iop(6/42=6)

loop1.holoCaM.run32.water2 

   0  1 
   C     64.70000000    82.25000000   105.77000000
   C     64.62000000    82.51000000   107.27000000
   O     63.57000000    82.99000000   107.68000000
   H     65.71900000    82.42500000   105.42500000
   H     64.42000000    81.21700000   105.56400000
   H     64.01900000    82.92200000   105.24700000
   N     65.60000000    82.13000000   108.09000000
   C     65.86000000    82.94000000   109.27000000
   C     65.96000000    84.42000000   108.94000000
   O     66.79000000    84.84000000   108.13000000
   C     67.18000000    82.53000000   109.91000000
   C     67.42000000    83.28000000   111.21000000
   O     68.57000000    83.12000000   111.67000000
   O     66.51000000    83.85000000   111.86000000
   H     66.36000000    81.62000000   107.66000000
   H     65.00000000    82.79000000   109.92000000
   H     67.94000000    82.79000000   109.18000000
   H     67.08000000    81.45000000   110.06000000
   N     65.01000000    85.27000000   109.34000000
   C     65.00000000    86.69000000   109.05000000
   C     65.65000000    87.67000000   110.02000000
   O     66.35000000    88.64000000   109.72000000
   C     63.59000000    87.15000000   108.71000000
   C     62.94000000    86.43000000   107.53000000
   C     63.58000000    86.78000000   106.19000000
   C     62.86000000    85.98000000   105.10000000
   N     63.69000000    86.08000000   103.89000000
   H     64.31000000    84.88000000   109.96000000
   H     65.44000000    86.86000000   108.06000000
   H     63.58000000    88.20000000   108.43000000
   H     62.95000000    87.11000000   109.59000000
   H     61.89000000    86.72000000   107.48000000
   H     63.03000000    85.35000000   107.66000000
   H     64.63000000    86.50000000   106.28000000
   H     63.47000000    87.80000000   105.82000000
   H     61.86000000    86.41000000   104.99000000
   H     62.59000000    84.96000000   105.37000000
   H     63.33000000    85.51000000   103.13000000
   H     63.68000000    86.98000000   103.44000000
   H     64.66000000    85.86000000   104.03000000
   N     65.76000000    87.26000000   111.28000000
   C     66.18000000    88.11000000   112.38000000
   C     67.48000000    87.62000000   113.00000000
   O     67.98000000    88.23000000   113.93000000
   C     65.06000000    88.34000000   113.39000000
   C     64.34000000    87.09000000   113.89000000
   O     64.79000000    85.96000000   113.60000000
   O     63.25000000    87.13000000   114.50000000
   H     65.21000000    86.47000000   111.58000000
   H     66.47000000    89.08000000   111.97000000
   H     64.29000000    89.02000000   113.04000000
   H     65.49000000    88.87000000   114.24000000
   N     68.05000000    86.54000000   112.44000000
   C     69.42000000    86.17000000   112.69000000
   C     69.75000000    85.59000000   114.06000000
   O     70.58000000    86.13000000   114.78000000
   H     67.58000000    86.08000000   111.68000000
   H     69.99000000    87.10000000   112.71000000
   H     69.75000000    85.44000000   111.95000000
   N     69.12000000    84.46000000   114.39000000
   C     69.26000000    83.60000000   115.55000000
   C     69.71000000    82.19000000   115.20000000
   O     69.98000000    81.39000000   116.09000000
   C     68.01000000    83.74000000   116.41000000
   C     66.71000000    83.37000000   115.72000000
   O     65.64000000    83.95000000   116.00000000
   O     66.65000000    82.46000000   114.86000000
   H     68.56000000    84.10000000   113.63000000
   H     70.10000000    84.00000000   116.12000000
   H     67.92000000    84.82000000   116.57000000
   H     68.04000000    83.16000000   117.33000000
   N     69.68000000    81.81000000   113.92000000
   C     70.03000000    80.51000000   113.40000000
   C     68.86000000    79.55000000   113.54000000
   O     69.08000000    78.36000000   113.30000000
   H     69.44000000    82.51000000   113.23000000
   H     70.91000000    80.09000000   113.90000000
   H     70.36000000    80.62000000   112.37000000
   N     67.63000000    79.98000000   113.82000000
   C     66.47000000    79.11000000   113.68000000
   C     65.33000000    79.77000000   112.92000000
   O     65.29000000    80.98000000   112.67000000
   C     66.01000000    78.77000000   115.09000000
   C     66.85000000    77.69000000   115.75000000
   O     65.94000000    79.93000000   115.90000000
   H     67.45000000    80.97000000   113.84000000
   H     66.75000000    78.18000000   113.19000000
   H     65.01000000    78.35000000   115.01000000
   H     66.33000000    80.64000000   115.39000000
   H     66.52000000    76.78000000   115.25000000
   H     67.91000000    77.92000000   115.65000000
   H     66.58000000    77.67000000   116.80000000
   N     64.35000000    78.94000000   112.55000000
   C     63.13000000    79.34000000   111.88000000
   C     61.88000000    78.94000000   112.65000000
   O     61.68000000    77.78000000   112.99000000
   C     63.19000000    78.81000000   110.45000000
   C     64.46000000    79.28000000   109.73000000
   C     62.04000000    79.17000000   109.52000000
   C     64.71000000    78.49000000   108.45000000
   H     64.45000000    78.00000000   112.90000000
   H     63.20000000    80.43000000   111.84000000
   H     63.13000000    77.72000000   110.45000000
   H     65.35000000    79.34000000   110.35000000
   H     64.35000000    80.34000000   109.52000000
   H     61.08000000    79.11000000   110.04000000
   H     62.12000000    80.19000000   109.13000000
   H     61.96000000    78.50000000   108.66000000
   H     65.52000000    78.89000000   107.84000000
   H     64.97000000    77.45000000   108.67000000
   H     63.79000000    78.54000000   107.87000000
   N     60.96000000    79.89000000   112.85000000
   C     59.73000000    79.68000000   113.57000000
   C     58.51000000    79.85000000   112.67000000
   O     58.63000000    80.10000000   111.48000000
   C     59.66000000    80.52000000   114.84000000
   C     59.39000000    82.02000000   114.73000000
   O     58.70000000    80.03000000   115.75000000
   H     61.21000000    80.82000000   112.52000000
   H     59.72000000    78.67000000   113.99000000
   H     60.62000000    80.35000000   115.34000000
   H     59.13000000    80.05000000   116.61000000
   H     60.22000000    82.50000000   114.22000000
   H     58.48000000    82.26000000   114.18000000
   H     59.25000000    82.48000000   115.71000000
   N     57.33000000    79.86000000   113.29000000
   C     56.01000000    79.91000000   112.68000000
   C     55.69000000    81.26000000   112.06000000
   O     54.77000000    81.44000000   111.27000000
   C     54.95000000    79.54000000   113.72000000
   C     55.08000000    78.09000000   114.16000000
   O     55.08000000    80.35000000   114.86000000
   H     57.40000000    79.72000000   114.29000000
   H     55.94000000    79.15000000   111.91000000
   H     53.99000000    79.84000000   113.29000000
   H     54.28000000    80.15000000   115.34000000
   H     54.92000000    77.48000000   113.27000000
   H     56.02000000    77.76000000   114.62000000
   H     54.33000000    77.89000000   114.92000000
   N     56.41000000    82.32000000   112.44000000
   C     56.37000000    83.63000000   111.81000000
   C     57.31000000    83.76000000   110.62000000
   O     57.27000000    84.85000000   110.06000000
   C     56.67000000    84.68000000   112.88000000
   C     56.28000000    84.45000000   114.33000000
   C     54.76000000    84.37000000   114.33000000
   C     54.31000000    84.23000000   115.78000000
   N     52.86000000    84.07000000   115.93000000
   H     56.97000000    82.16000000   113.26000000
   H     55.35000000    83.84000000   111.50000000
   H     56.20000000    85.57000000   112.47000000
   H     57.73000000    84.91000000   112.92000000
   H     56.58000000    85.31000000   114.93000000
   H     56.74000000    83.53000000   114.70000000
   H     54.43000000    83.51000000   113.76000000
   H     54.45000000    85.35000000   113.94000000
   H     54.58000000    85.12000000   116.34000000
   H     54.84000000    83.36000000   116.17000000
   H     52.43000000    84.94000000   115.65000000
   H     52.46000000    83.34000000   115.36000000
   H     52.54000000    83.85000000   116.87000000
   N     58.17000000    82.78000000   110.33000000
   C     59.18000000    82.84000000   109.29000000
   C     58.84000000    81.78000000   108.25000000
   O     58.88000000    82.01000000   107.04000000
   C     60.52000000    82.67000000   109.99000000
   C     61.07000000    83.99000000   110.53000000
   C     62.28000000    83.72000000   111.41000000
   O     62.30000000    82.74000000   112.18000000
   O     63.25000000    84.51000000   111.35000000
   H     58.17000000    81.91000000   110.84000000
   H     59.22000000    83.79000000   108.76000000
   H     61.24000000    82.33000000   109.25000000
   H     60.49000000    81.83000000   110.69000000
   H     60.21000000    84.48000000   111.00000000
   H     61.27000000    84.65000000   109.69000000
   N     58.46000000    80.58000000   108.70000000
   C     58.38000000    79.39000000   107.88000000
   H     57.79000000    79.60300000   106.98900000
   H     59.38400000    79.08300000   107.58600000
   H     57.90600000    78.58900000   108.44700000
   H     58.50000000    80.42000000   109.69000000
  Ca     64.54000000    83.49000000   113.31900000
   O     63.88000000    81.68000000   115.14900000
   H     64.54000000    81.07000000   115.48900000
   H     63.21000000    81.71000000   115.83900000
   O     62.28000000    84.92000000   114.05900000
   H     62.63000000    85.81000000   114.01900000
   H     61.53000000    84.97000000   114.65900000

Ca 1.00



