%chk=loop3.apoCaM-CA-Ng.Init31.run36.water6.chk
%nprocshared=20
%mem=10GB
%nosave
#b3lyp/svp scf=(tight,noincore,xqc) Test 
#IOP(5/87=12) Density=Current Pop=(MK,readradii) iop(6/33=2) iop(6/42=6)

loop3.apoCaM-CA-Ng.Init31.run36.water6 

   0  1 
   C     88.64000000    56.50000000   104.48000000
   C     89.75000000    57.42000000   104.97000000
   O     90.62000000    57.72000000   104.16000000
   H     87.78200000    57.09800000   104.17300000
   H     88.99800000    55.91700000   103.63100000
   H     88.34400000    55.82700000   105.28400000
   N     89.70000000    57.95000000   106.20000000
   C     90.81000000    58.72000000   106.73000000
   C     91.72000000    57.78000000   107.51000000
   O     91.39000000    56.64000000   107.81000000
   C     90.33000000    59.86000000   107.63000000
   C     89.65000000    59.34000000   108.89000000
   O     90.22000000    59.32000000   110.00000000
   O     88.56000000    58.75000000   108.73000000
   H     88.94000000    57.71000000   106.82000000
   H     91.28000000    59.08000000   105.81000000
   H     89.66000000    60.50000000   107.06000000
   H     91.18000000    60.44000000   107.97000000
   N     92.91000000    58.32000000   107.79000000
   C     93.90000000    57.87000000   108.75000000
   C     94.63000000    56.64000000   108.23000000
   O     95.00000000    55.78000000   109.03000000
   C     94.86000000    58.99000000   109.12000000
   C     94.20000000    60.23000000   109.70000000
   C     95.14000000    61.39000000   110.04000000
   C     95.62000000    62.10000000   108.78000000
   N     96.20000000    63.41000000   109.13000000
   H     93.13000000    59.14000000   107.24000000
   H     93.39000000    57.52000000   109.65000000
   H     95.43000000    59.20000000   108.22000000
   H     95.69000000    58.61000000   109.74000000
   H     93.71000000    59.85000000   110.60000000
   H     93.44000000    60.57000000   108.99000000
   H     95.91000000    60.91000000   110.64000000
   H     94.53000000    62.09000000   110.61000000
   H     94.80000000    62.32000000   108.10000000
   H     96.46000000    61.52000000   108.39000000
   H     95.50000000    64.11000000   109.31000000
   H     96.90000000    63.33000000   109.85000000
   H     96.70000000    63.82000000   108.36000000
   N     94.97000000    56.59000000   106.94000000
   C     95.23000000    55.36000000   106.20000000
   C     96.27000000    55.53000000   105.10000000
   O     96.87000000    54.53000000   104.70000000
   C     93.97000000    54.85000000   105.51000000
   C     93.20000000    55.79000000   104.60000000
   O     92.19000000    55.44000000   103.95000000
   O     93.55000000    56.98000000   104.41000000
   H     94.56000000    57.37000000   106.45000000
   H     95.68000000    54.58000000   106.82000000
   H     93.33000000    54.54000000   106.33000000
   H     94.27000000    53.97000000   104.95000000
   N     96.39000000    56.76000000   104.62000000
   C     97.43000000    57.12000000   103.67000000
   C     97.83000000    58.59000000   103.53000000
   O     97.72000000    59.42000000   104.42000000
   H     95.66000000    57.41000000   104.86000000
   H     97.15000000    56.73000000   102.69000000
   H     98.33000000    56.53000000   103.86000000
   N     98.50000000    59.03000000   102.46000000
   C     98.80000000    58.40000000   101.19000000
   C     98.28000000    59.18000000    99.99000000
   O     98.18000000    60.40000000   100.04000000
   C    100.31000000    58.23000000   101.02000000
   C    100.92000000    57.28000000   102.04000000
   N    101.74000000    57.79000000   102.96000000
   O    100.67000000    56.08000000   101.98000000
   H     98.69000000    60.02000000   102.53000000
   H     98.23000000    57.47000000   101.21000000
   H    100.81000000    59.16000000   101.32000000
   H    100.57000000    57.79000000   100.06000000
   H    101.99000000    58.75000000   103.17000000
   H    102.11000000    57.11000000   103.60000000
   N     98.02000000    58.54000000    98.85000000
   C     98.13000000    57.14000000    98.51000000
   C     96.89000000    56.38000000    98.96000000
   O     96.00000000    56.85000000    99.66000000
   H     97.67000000    59.12000000    98.10000000
   H     98.97000000    56.61000000    98.98000000
   H     98.18000000    57.13000000    97.42000000
   N     96.92000000    55.12000000    98.52000000
   C     95.85000000    54.15000000    98.61000000
   C     96.34000000    52.77000000    99.02000000
   O     97.34000000    52.24000000    98.54000000
   C     95.15000000    53.99000000    97.26000000
   C     94.19000000    55.06000000    96.80000000
   C     92.83000000    54.99000000    97.12000000
   C     94.60000000    56.24000000    96.17000000
   C     91.94000000    56.03000000    96.81000000
   C     93.77000000    57.34000000    95.94000000
   C     92.38000000    57.20000000    96.17000000
   O     91.49000000    58.17000000    95.83000000
   H     97.74000000    54.71000000    98.10000000
   H     95.07000000    54.49000000    99.29000000
   H     94.62000000    53.04000000    97.21000000
   H     95.97000000    53.90000000    96.54000000
   H     92.44000000    54.21000000    97.75000000
   H     95.60000000    56.33000000    95.77000000
   H     90.89000000    55.90000000    97.04000000
   H     94.15000000    58.23000000    95.46000000
   H     91.73000000    58.89000000    95.24000000
   N     95.64000000    52.04000000    99.90000000
   C     95.98000000    50.69000000   100.29000000
   C     95.59000000    49.70000000    99.21000000
   O     96.19000000    48.63000000    99.15000000
   C     95.49000000    50.28000000   101.68000000
   C     96.13000000    50.95000000   102.88000000
   C     93.97000000    50.21000000   101.82000000
   C     97.62000000    50.71000000   103.16000000
   H     94.84000000    52.47000000   100.33000000
   H     97.07000000    50.67000000   100.31000000
   H     95.75000000    49.23000000   101.77000000
   H     95.60000000    50.53000000   103.74000000
   H     95.98000000    52.02000000   102.99000000
   H     93.59000000    49.42000000   101.17000000
   H     93.70000000    49.98000000   102.85000000
   H     93.52000000    51.15000000   101.52000000
   H     97.91000000    51.32000000   104.01000000
   H     98.00000000    49.71000000   103.40000000
   H     98.14000000    51.23000000   102.35000000
   N     94.64000000    50.07000000    98.34000000
   C     94.34000000    49.42000000    97.08000000
   C     93.47000000    48.17000000    97.19000000
   O     93.36000000    47.39000000    96.25000000
   C     93.69000000    50.42000000    96.14000000
   O     92.42000000    50.84000000    96.59000000
   H     94.11000000    50.91000000    98.53000000
   H     95.22000000    49.15000000    96.49000000
   H     93.69000000    49.97000000    95.15000000
   H     94.35000000    51.28000000    96.14000000
   H     92.60000000    51.22000000    97.45000000
   N     92.77000000    47.98000000    98.31000000
   C     91.86000000    46.88000000    98.56000000
   C     90.71000000    47.44000000    99.38000000
   O     90.86000000    48.01000000   100.46000000
   C     92.62000000    45.85000000    99.40000000
   H     92.87000000    48.66000000    99.05000000
   H     91.46000000    46.41000000    97.66000000
   H     92.01000000    44.95000000    99.41000000
   H     93.62000000    45.62000000    99.03000000
   H     92.87000000    46.26000000   100.38000000
   N     89.51000000    47.30000000    98.83000000
   C     88.21000000    47.65000000    99.37000000
   C     87.97000000    49.12000000    99.67000000
   O     87.07000000    49.49000000   100.43000000
   C     87.91000000    46.73000000   100.55000000
   H     89.51000000    46.76000000    97.98000000
   H     87.52000000    47.36000000    98.57000000
   H     86.84000000    46.81000000   100.74000000
   H     88.06000000    45.67000000   100.33000000
   H     88.50000000    47.05000000   101.42000000
   N     88.74000000    49.97000000    98.99000000
   C     88.64000000    51.41000000    99.04000000
   C     87.68000000    52.00000000    98.00000000
   O     87.04000000    53.02000000    98.24000000
   C     89.98000000    52.06000000    98.71000000
   C     90.79000000    51.96000000   100.01000000
   C     92.15000000    52.60000000    99.76000000
   O     92.48000000    53.68000000   100.30000000
   O     92.77000000    52.16000000    98.77000000
   H     89.43000000    49.54000000    98.39000000
   H     88.35000000    51.77000000   100.03000000
   H     89.77000000    53.08000000    98.41000000
   H     90.52000000    51.46000000    97.97000000
   H     90.92000000    50.91000000   100.24000000
   H     90.21000000    52.61000000   100.67000000
   N     87.68000000    51.50000000    96.77000000
   C     86.77000000    51.97000000    95.74000000
   H     85.89000000    52.41200000    96.20700000
   H     87.27000000    52.72000000    95.12700000
   H     86.46600000    51.13200000    95.11300000
   H     88.40000000    50.83000000    96.54000000
  Ca     92.33000000    57.43000000   102.21700000
   O     90.97000000    55.91000000   100.49700000
   H     91.41000000    55.08000000   100.29700000
   H     90.06000000    55.77000000   100.21700000
   O     93.98000000    55.43000000   101.62700000
   H     94.86000000    55.06000000   101.63700000
   H     93.46000000    54.80000000   101.12700000
   O     95.04000000    58.58000000   102.13700000
   H     95.40000000    58.09000000   101.39700000
   H     95.38000000    59.46000000   102.03700000
   O     90.76000000    59.05000000   101.03700000
   H     90.88000000    60.00000000   101.00700000
   H     89.81000000    58.93000000   100.95700000
   O     92.44000000    60.25000000   103.15700000
   H     92.06000000    60.82000000   102.48700000
   H     92.63000000    60.85000000   103.88700000
   O     93.24000000    57.86000000    99.65000000
   H     94.11000000    57.45000000    99.59000000
   H     93.24000000    58.51000000    98.95000000

Ca 1.00



