%chk=loop3.holoCaM-CaMKII.run98.water2.chk
%nprocshared=20
%mem=10GB
%nosave
#b3lyp/svp scf=(tight,noincore,xqc) Test 
#IOP(5/87=12) Density=Current Pop=(MK,readradii) iop(6/33=2) iop(6/42=6)

loop3.holoCaM-CaMKII.run98.water2 

   0  1 
   C     43.94000000    30.88000000     0.40100000
   C     43.68000000    31.71000000     1.64100000
   O     43.40000000    31.12000000     2.68100000
   H     44.97300000    30.53200000     0.40700000
   H     43.26800000    30.02100000     0.39000000
   H     43.76700000    31.48800000    -0.48700000
   N     43.77000000    33.04000000     1.51100000
   C     43.33000000    33.92000000     2.58100000
   C     41.81000000    34.03000000     2.60100000
   O     41.27000000    35.03000000     2.14100000
   C     44.03000000    35.25000000     2.35100000
   C     43.85000000    36.35000000     3.39100000
   O     43.88000000    37.55000000     3.07100000
   O     43.73000000    35.93000000     4.56100000
   H     44.03000000    33.42000000     0.61100000
   H     43.70000000    33.44000000     3.49100000
   H     43.65000000    35.72000000     1.44100000
   H     45.09000000    35.00000000     2.33100000
   N     41.13000000    33.09000000     3.26100000
   C     39.69000000    33.14000000     3.39100000
   C     39.28000000    34.15000000     4.45100000
   O     38.18000000    34.66000000     4.23100000
   C     39.17000000    31.79000000     3.89100000
   C     39.62000000    30.65000000     2.99100000
   C     38.83000000    29.41000000     3.40100000
   C     39.68000000    28.19000000     3.05100000
   N     39.74000000    28.00000000     1.60100000
   H     41.67000000    32.27000000     3.49100000
   H     39.20000000    33.43000000     2.46100000
   H     38.09000000    31.80000000     4.03100000
   H     39.66000000    31.63000000     4.86100000
   H     40.66000000    30.50000000     3.29100000
   H     39.49000000    30.89000000     1.93100000
   H     37.82000000    29.39000000     3.00100000
   H     38.68000000    29.37000000     4.48100000
   H     39.35000000    27.33000000     3.63100000
   H     40.69000000    28.36000000     3.44100000
   H     39.96000000    27.02000000     1.46100000
   H     38.88000000    28.32000000     1.17100000
   H     40.54000000    28.55000000     1.33100000
   N     40.07000000    34.52000000     5.46100000
   C     39.71000000    35.59000000     6.37100000
   C     39.88000000    37.00000000     5.84100000
   O     39.23000000    37.94000000     6.31100000
   C     40.38000000    35.45000000     7.73100000
   C     41.88000000    35.21000000     7.57100000
   O     42.30000000    34.06000000     7.37100000
   O     42.64000000    36.20000000     7.62100000
   H     41.02000000    34.20000000     5.49100000
   H     38.65000000    35.52000000     6.60100000
   H     39.93000000    34.62000000     8.28100000
   H     40.17000000    36.30000000     8.38100000
   N     40.55000000    37.07000000     4.68100000
   C     40.82000000    38.31000000     3.99100000
   C     41.64000000    39.33000000     4.78100000
   O     41.32000000    40.50000000     4.94100000
   H     40.91000000    36.19000000     4.33100000
   H     39.88000000    38.80000000     3.74100000
   H     41.27000000    38.05000000     3.03100000
   N     42.73000000    38.89000000     5.41100000
   C     43.60000000    39.74000000     6.19100000
   C     44.82000000    40.24000000     5.43100000
   O     45.54000000    41.08000000     5.95100000
   C     43.86000000    39.20000000     7.59100000
   C     45.05000000    38.24000000     7.62100000
   N     45.66000000    37.86000000     8.75100000
   O     45.46000000    37.75000000     6.58100000
   H     43.00000000    37.93000000     5.24100000
   H     43.10000000    40.68000000     6.42100000
   H     42.95000000    38.84000000     8.06100000
   H     44.28000000    40.05000000     8.12100000
   H     45.39000000    38.27000000     9.63100000
   H     46.54000000    37.37000000     8.77100000
   N     45.08000000    39.78000000     4.20100000
   C     46.10000000    40.24000000     3.28100000
   C     47.24000000    39.24000000     3.28100000
   O     48.25000000    39.42000000     2.61100000
   H     44.37000000    39.18000000     3.81100000
   H     46.53000000    41.17000000     3.66100000
   H     45.74000000    40.34000000     2.26100000
   N     47.11000000    38.11000000     3.99100000
   C     48.22000000    37.22000000     4.27100000
   C     47.79000000    35.76000000     4.28100000
   O     46.71000000    35.43000000     4.76100000
   C     48.82000000    37.54000000     5.64100000
   C     49.38000000    38.93000000     5.83100000
   C     50.46000000    39.38000000     5.06100000
   C     48.86000000    39.81000000     6.78100000
   C     50.90000000    40.71000000     5.09100000
   C     49.29000000    41.14000000     6.85100000
   C     50.34000000    41.60000000     6.03100000
   O     50.73000000    42.90000000     6.08100000
   H     46.21000000    38.02000000     4.44100000
   H     49.06000000    37.22000000     3.58100000
   H     49.68000000    36.88000000     5.72100000
   H     48.12000000    37.31000000     6.44100000
   H     50.79000000    38.73000000     4.26100000
   H     48.15000000    39.42000000     7.49100000
   H     51.66000000    41.06000000     4.40100000
   H     49.00000000    41.86000000     7.61100000
   H     51.54000000    43.01000000     5.59100000
   N     48.67000000    34.84000000     3.89100000
   C     48.56000000    33.40000000     4.03100000
   C     49.58000000    32.88000000     5.02100000
   O     50.75000000    33.14000000     4.75100000
   C     48.68000000    32.66000000     2.70100000
   C     47.65000000    33.18000000     1.70100000
   C     48.52000000    31.15000000     2.78100000
   C     48.14000000    33.01000000     0.26100000
   H     49.37000000    35.14000000     3.23100000
   H     47.60000000    33.20000000     4.52100000
   H     49.69000000    32.65000000     2.28100000
   H     47.43000000    34.25000000     1.71100000
   H     46.67000000    32.76000000     1.91100000
   H     48.91000000    30.64000000     3.67100000
   H     47.47000000    30.90000000     2.86100000
   H     48.86000000    30.73000000     1.83100000
   H     48.17000000    31.96000000    -0.00900000
   H     47.41000000    33.51000000    -0.36900000
   H     49.16000000    33.40000000     0.16100000
   N     49.19000000    32.25000000     6.13100000
   C     50.08000000    31.45000000     6.96100000
   C     50.09000000    30.00000000     6.49100000
   O     49.26000000    29.57000000     5.70100000
   C     49.72000000    31.52000000     8.44100000
   O     48.71000000    30.60000000     8.78100000
   H     48.20000000    32.29000000     6.33100000
   H     51.07000000    31.90000000     6.83100000
   H     49.36000000    32.53000000     8.59100000
   H     50.62000000    31.23000000     9.00100000
   H     48.11000000    31.06000000     9.37100000
   N     51.01000000    29.20000000     7.05100000
   C     51.10000000    27.79000000     6.76100000
   C     49.79000000    27.03000000     6.95100000
   O     49.40000000    26.31000000     6.04100000
   C     52.33000000    27.25000000     7.49100000
   H     51.83000000    29.57000000     7.51100000
   H     51.36000000    27.70000000     5.70100000
   H     52.17000000    27.44000000     8.55100000
   H     52.36000000    26.17000000     7.35100000
   H     53.23000000    27.63000000     7.00100000
   N     49.18000000    27.13000000     8.14100000
   C     47.88000000    26.66000000     8.58100000
   C     46.73000000    26.91000000     7.62100000
   O     45.86000000    26.10000000     7.31100000
   C     47.71000000    27.43000000     9.89100000
   H     49.68000000    27.78000000     8.73100000
   H     47.84000000    25.58000000     8.71100000
   H     47.56000000    28.48000000     9.63100000
   H     46.89000000    26.94000000    10.42100000
   H     48.59000000    27.28000000    10.51100000
   N     46.75000000    28.05000000     6.92100000
   C     45.90000000    28.53000000     5.85100000
   C     46.15000000    27.75000000     4.57100000
   O     45.19000000    27.21000000     4.02100000
   C     46.13000000    30.03000000     5.70100000
   C     45.73000000    30.91000000     6.88100000
   C     45.66000000    32.35000000     6.41100000
   O     44.71000000    32.72000000     5.70100000
   O     46.56000000    33.13000000     6.82100000
   H     47.49000000    28.67000000     7.23100000
   H     44.88000000    28.29000000     6.14100000
   H     45.57000000    30.40000000     4.84100000
   H     47.13000000    30.28000000     5.35100000
   H     46.48000000    30.82000000     7.67100000
   H     44.75000000    30.58000000     7.23100000
   N     47.38000000    27.54000000     4.09100000
   C     47.68000000    26.87000000     2.84100000
   H     48.71200000    26.51900000     2.85600000
   H     47.00900000    26.02000000     2.71300000
   H     47.54600000    27.56700000     2.01300000
   H     48.09000000    27.88000000     4.72100000
  Ca     44.78000000    35.19000000     6.67000000
   O     47.13000000    35.58000000     7.90000000
   H     47.20000000    34.64000000     7.73000000
   H     48.03000000    35.87000000     8.00000000
   O     44.48000000    34.24000000     9.17000000
   H     43.89000000    33.49000000     9.04000000
   H     44.45000000    34.40000000    10.11000000

Ca 1.00



