%chk=loop1.apoCaM-CA-Ng.Init31.run17.water6.chk
%nprocshared=20
%mem=10GB
%nosave
#b3lyp/svp scf=(tight,noincore,xqc) Test 
#IOP(5/87=12) Density=Current Pop=(MK,readradii) iop(6/33=2) iop(6/42=6)

loop1.apoCaM-CA-Ng.Init31.run17.water6 

   0  1 
   C     78.34000000    63.98000000   -20.28000000
   C     77.57000000    62.73000000   -20.68000000
   O     77.78000000    62.10000000   -21.71000000
   H     79.27500000    64.02500000   -20.83900000
   H     77.74100000    64.86300000   -20.50300000
   H     78.55700000    63.94800000   -19.21200000
   N     76.76000000    62.16000000   -19.78000000
   C     76.06000000    60.91000000   -20.01000000
   C     74.59000000    61.14000000   -19.70000000
   O     74.15000000    62.18000000   -19.21000000
   C     76.64000000    59.80000000   -19.14000000
   C     76.52000000    58.46000000   -19.85000000
   O     77.43000000    58.12000000   -20.63000000
   O     75.43000000    57.85000000   -19.75000000
   H     76.45000000    62.68000000   -18.98000000
   H     76.13000000    60.70000000   -21.08000000
   H     76.14000000    59.75000000   -18.17000000
   H     77.68000000    60.02000000   -18.93000000
   N     73.70000000    60.16000000   -19.87000000
   C     72.25000000    60.19000000   -19.82000000
   C     71.72000000    60.25000000   -18.39000000
   O     70.87000000    61.10000000   -18.13000000
   C     71.61000000    59.13000000   -20.70000000
   C     70.08000000    59.21000000   -20.66000000
   C     69.51000000    57.98000000   -21.37000000
   C     68.17000000    58.33000000   -22.01000000
   N     68.28000000    58.76000000   -23.41000000
   H     74.08000000    59.28000000   -20.20000000
   H     71.88000000    61.12000000   -20.23000000
   H     71.93000000    58.11000000   -20.50000000
   H     71.92000000    59.33000000   -21.72000000
   H     69.73000000    60.17000000   -21.04000000
   H     69.74000000    59.15000000   -19.63000000
   H     69.39000000    57.16000000   -20.66000000
   H     70.25000000    57.63000000   -22.08000000
   H     67.50000000    58.92000000   -21.38000000
   H     67.67000000    57.37000000   -22.11000000
   H     68.78000000    58.03000000   -23.90000000
   H     67.40000000    58.88000000   -23.91000000
   H     68.73000000    59.65000000   -23.49000000
   N     71.96000000    59.35000000   -17.44000000
   C     72.85000000    58.20000000   -17.48000000
   C     73.98000000    58.24000000   -16.46000000
   O     73.74000000    58.70000000   -15.35000000
   C     72.00000000    56.94000000   -17.42000000
   C     72.88000000    55.72000000   -17.64000000
   O     73.05000000    55.20000000   -18.77000000
   O     73.44000000    55.20000000   -16.66000000
   H     71.47000000    59.57000000   -16.58000000
   H     73.26000000    58.13000000   -18.49000000
   H     71.25000000    56.89000000   -18.21000000
   H     71.64000000    56.81000000   -16.39000000
   N     75.21000000    57.89000000   -16.83000000
   C     76.27000000    57.80000000   -15.84000000
   C     77.50000000    57.03000000   -16.29000000
   O     77.85000000    56.99000000   -17.47000000
   H     75.36000000    57.60000000   -17.78000000
   H     75.95000000    57.40000000   -14.88000000
   H     76.62000000    58.80000000   -15.55000000
   N     78.19000000    56.40000000   -15.34000000
   C     79.35000000    55.58000000   -15.64000000
   C     80.08000000    55.28000000   -14.33000000
   O     79.41000000    55.07000000   -13.33000000
   C     79.07000000    54.26000000   -16.35000000
   C     77.81000000    53.55000000   -15.86000000
   O     76.70000000    54.00000000   -16.24000000
   O     77.94000000    52.47000000   -15.26000000
   H     77.77000000    56.26000000   -14.43000000
   H     79.97000000    56.26000000   -16.21000000
   H     79.90000000    53.56000000   -16.30000000
   H     78.91000000    54.46000000   -17.41000000
   N     81.41000000    55.36000000   -14.30000000
   C     82.26000000    56.20000000   -15.11000000
   C     82.91000000    55.60000000   -16.35000000
   O     83.38000000    56.41000000   -17.15000000
   H     81.84000000    55.13000000   -13.42000000
   H     83.11000000    56.59000000   -14.55000000
   H     81.71000000    57.06000000   -15.48000000
   N     82.82000000    54.28000000   -16.52000000
   C     83.41000000    53.52000000   -17.61000000
   C     84.91000000    53.45000000   -17.38000000
   O     85.72000000    54.09000000   -18.06000000
   C     82.98000000    53.96000000   -19.01000000
   C     81.49000000    54.09000000   -19.31000000
   O     83.64000000    53.12000000   -19.93000000
   H     82.48000000    53.76000000   -15.73000000
   H     83.09000000    52.48000000   -17.57000000
   H     83.41000000    54.94000000   -19.22000000
   H     84.54000000    53.39000000   -20.12000000
   H     80.92000000    53.36000000   -18.74000000
   H     81.24000000    55.09000000   -18.96000000
   H     81.35000000    53.95000000   -20.38000000
   N     85.32000000    52.78000000   -16.30000000
   C     86.62000000    52.54000000   -15.71000000
   C     87.42000000    51.66000000   -16.65000000
   O     87.66000000    50.54000000   -16.21000000
   C     87.30000000    53.81000000   -15.22000000
   C     86.34000000    54.54000000   -14.29000000
   C     88.66000000    53.55000000   -14.57000000
   C     86.93000000    55.63000000   -13.39000000
   H     84.57000000    52.32000000   -15.80000000
   H     86.64000000    51.88000000   -14.84000000
   H     87.44000000    54.47000000   -16.07000000
   H     85.95000000    53.76000000   -13.64000000
   H     85.49000000    55.03000000   -14.78000000
   H     88.47000000    52.90000000   -13.72000000
   H     89.33000000    52.98000000   -15.22000000
   H     89.08000000    54.50000000   -14.25000000
   H     86.13000000    55.99000000   -12.74000000
   H     87.64000000    55.10000000   -12.76000000
   H     87.42000000    56.47000000   -13.87000000
   N     87.88000000    52.10000000   -17.82000000
   C     88.70000000    51.35000000   -18.74000000
   C     89.88000000    52.08000000   -19.37000000
   O     90.06000000    53.27000000   -19.13000000
   C     87.79000000    50.76000000   -19.82000000
   C     86.93000000    51.78000000   -20.56000000
   O     86.82000000    49.98000000   -19.15000000
   H     87.67000000    53.07000000   -18.04000000
   H     89.08000000    50.52000000   -18.14000000
   H     88.40000000    50.15000000   -20.48000000
   H     86.64000000    49.36000000   -19.86000000
   H     86.41000000    52.40000000   -19.83000000
   H     87.50000000    52.32000000   -21.32000000
   H     86.29000000    51.08000000   -21.09000000
   N     90.69000000    51.30000000   -20.10000000
   C     91.78000000    51.82000000   -20.90000000
   C     91.32000000    52.34000000   -22.25000000
   O     90.91000000    51.56000000   -23.11000000
   C     92.89000000    50.78000000   -21.03000000
   C     93.69000000    50.74000000   -19.73000000
   O     92.48000000    49.45000000   -21.25000000
   H     90.60000000    50.30000000   -20.17000000
   H     92.11000000    52.63000000   -20.24000000
   H     93.57000000    51.09000000   -21.83000000
   H     92.72000000    49.22000000   -22.15000000
   H     94.06000000    51.72000000   -19.44000000
   H     93.01000000    50.39000000   -18.96000000
   H     94.53000000    50.04000000   -19.77000000
   N     91.35000000    53.66000000   -22.41000000
   C     90.67000000    54.44000000   -23.43000000
   C     89.17000000    54.19000000   -23.51000000
   O     88.64000000    53.18000000   -23.96000000
   C     91.21000000    54.12000000   -24.82000000
   C     92.65000000    54.61000000   -24.91000000
   C     93.48000000    53.91000000   -25.98000000
   C     94.78000000    54.69000000   -26.19000000
   N     95.82000000    53.84000000   -26.79000000
   H     91.72000000    54.22000000   -21.66000000
   H     90.84000000    55.51000000   -23.35000000
   H     90.59000000    54.68000000   -25.53000000
   H     91.27000000    53.05000000   -24.98000000
   H     93.15000000    54.38000000   -23.97000000
   H     92.64000000    55.69000000   -25.08000000
   H     92.93000000    53.95000000   -26.91000000
   H     93.62000000    52.85000000   -25.76000000
   H     95.03000000    55.12000000   -25.22000000
   H     94.56000000    55.56000000   -26.82000000
   H     96.30000000    53.45000000   -25.99000000
   H     95.45000000    53.08000000   -27.34000000
   H     96.43000000    54.35000000   -27.41000000
   N     88.43000000    55.23000000   -23.13000000
   C     86.98000000    55.15000000   -23.14000000
   C     86.23000000    55.05000000   -21.82000000
   O     85.16000000    54.45000000   -21.84000000
   C     86.32000000    56.30000000   -23.89000000
   C     86.38000000    56.17000000   -25.41000000
   C     85.89000000    57.48000000   -26.01000000
   O     84.66000000    57.63000000   -26.14000000
   O     86.65000000    58.46000000   -26.16000000
   H     88.86000000    56.10000000   -22.86000000
   H     86.61000000    54.34000000   -23.77000000
   H     86.76000000    57.26000000   -23.61000000
   H     85.27000000    56.31000000   -23.60000000
   H     85.81000000    55.30000000   -25.74000000
   H     87.37000000    55.98000000   -25.82000000
   N     86.78000000    55.47000000   -20.68000000
   C     87.96000000    56.26000000   -20.42000000
   H     88.75900000    55.95200000   -21.09500000
   H     87.73500000    57.31400000   -20.58100000
   H     88.27900000    56.10900000   -19.38900000
   H     86.48000000    54.91000000   -19.89000000
  Ca     74.79000000    53.26000000   -17.61700000
   O     72.33000000    52.30000000   -17.00700000
   H     72.39000000    51.36000000   -16.82700000
   H     71.47000000    52.41000000   -17.41700000
   O     76.91000000    51.88000000   -18.85700000
   H     77.35000000    52.45000000   -19.48700000
   H     76.97000000    51.01000000   -19.23700000
   O     74.02000000    52.22000000   -20.07700000
   H     74.61000000    52.23000000   -20.82700000
   H     73.19000000    52.56000000   -20.42700000
   O     76.15000000    55.15000000   -18.85700000
   H     77.09000000    55.14000000   -18.64700000
   H     76.04000000    55.93000000   -19.39700000
   O     74.63000000    52.29000000   -15.05700000
   H     73.96000000    52.25000000   -14.37700000
   H     75.41000000    52.62000000   -14.60700000
   O     74.67000000    50.52000000   -17.38700000
   H     74.41000000    49.72000000   -17.84700000
   H     75.13000000    50.21000000   -16.60700000

Ca 1.00



