%chk=loop2.apoCaM-CA-Ng.Init293.run98.water6.chk
%nprocshared=20
%mem=10GB
%nosave
#b3lyp/svp scf=(tight,noincore,xqc) Test 
#IOP(5/87=12) Density=Current Pop=(MK,readradii) iop(6/33=2) iop(6/42=6)

loop2.apoCaM-CA-Ng.Init293.run98.water6 

   -2  1 
   C     60.61000000   107.00000000    20.12000000
   C     59.89000000   108.03000000    20.98000000
   O     59.36000000   107.60000000    22.01000000
   H     61.59700000   106.80500000    20.53800000
   H     60.03400000   106.07500000    20.10200000
   H     60.71600000   107.38300000    19.10500000
   N     59.77000000   109.33000000    20.73000000
   C     58.96000000   110.28000000    21.46000000
   C     57.45000000   110.18000000    21.30000000
   O     56.73000000   110.62000000    22.20000000
   C     59.46000000   111.73000000    21.38000000
   C     59.48000000   112.23000000    19.94000000
   O     58.44000000   112.16000000    19.25000000
   O     60.49000000   112.77000000    19.44000000
   H     60.19000000   109.71000000    19.89000000
   H     59.05000000   110.10000000    22.53000000
   H     60.49000000   111.84000000    21.69000000
   H     58.77000000   112.36000000    21.95000000
   N     57.01000000   109.65000000    20.16000000
   C     55.64000000   109.24000000    19.90000000
   C     54.91000000   108.53000000    21.04000000
   O     53.70000000   108.68000000    21.17000000
   C     54.87000000   110.42000000    19.32000000
   H     57.73000000   109.34000000    19.53000000
   H     55.84000000   108.49000000    19.14000000
   H     54.99000000   111.24000000    20.03000000
   H     55.25000000   110.82000000    18.38000000
   H     53.88000000   110.04000000    19.08000000
   N     55.65000000   107.66000000    21.74000000
   C     55.32000000   106.86000000    22.90000000
   C     54.96000000   107.67000000    24.14000000
   O     54.30000000   107.20000000    25.06000000
   C     54.63000000   105.53000000    22.61000000
   C     55.16000000   104.71000000    21.44000000
   O     56.36000000   104.39000000    21.44000000
   O     54.49000000   104.36000000    20.44000000
   H     56.65000000   107.74000000    21.62000000
   H     56.33000000   106.52000000    23.12000000
   H     53.56000000   105.69000000    22.55000000
   H     54.75000000   104.97000000    23.54000000
   N     55.42000000   108.92000000    24.19000000
   C     55.30000000   109.84000000    25.30000000
   C     55.87000000   109.23000000    26.58000000
   O     57.06000000   108.93000000    26.61000000
   H     56.17000000   109.17000000    23.57000000
   H     54.33000000   110.34000000    25.42000000
   H     56.01000000   110.63000000    25.07000000
   N     55.13000000   109.10000000    27.68000000
   C     55.56000000   108.39000000    28.87000000
   C     56.87000000   108.86000000    29.50000000
   O     57.61000000   108.10000000    30.12000000
   C     55.51000000   106.88000000    28.73000000
   C     54.06000000   106.40000000    28.68000000
   N     53.47000000   106.22000000    27.50000000
   O     53.43000000   106.22000000    29.72000000
   H     54.20000000   109.48000000    27.71000000
   H     54.83000000   108.68000000    29.63000000
   H     55.99000000   106.39000000    29.57000000
   H     56.02000000   106.57000000    27.81000000
   H     54.01000000   106.49000000    26.68000000
   H     52.54000000   105.84000000    27.41000000
   N     57.25000000   110.13000000    29.34000000
   C     58.40000000   110.76000000    29.96000000
   C     59.71000000   110.42000000    29.26000000
   O     60.78000000   110.84000000    29.69000000
   H     56.74000000   110.71000000    28.69000000
   H     58.49000000   110.48000000    31.01000000
   H     58.28000000   111.84000000    29.88000000
   N     59.69000000   109.79000000    28.08000000
   C     60.73000000   109.69000000    27.08000000
   C     61.56000000   108.42000000    27.23000000
   O     61.07000000   107.33000000    27.53000000
   C     60.11000000   109.82000000    25.69000000
   C     59.39000000   111.13000000    25.39000000
   O     61.15000000   109.94000000    24.75000000
   H     58.80000000   109.41000000    27.79000000
   H     61.39000000   110.55000000    27.23000000
   H     59.47000000   108.96000000    25.48000000
   H     61.65000000   109.12000000    24.75000000
   H     59.17000000   111.20000000    24.32000000
   H     58.51000000   111.10000000    26.03000000
   H     60.01000000   111.95000000    25.77000000
   N     62.84000000   108.52000000    26.89000000
   C     63.66000000   107.39000000    26.51000000
   C     63.09000000   106.73000000    25.26000000
   O     62.41000000   107.36000000    24.46000000
   C     65.12000000   107.83000000    26.44000000
   C     65.36000000   108.52000000    25.09000000
   C     65.58000000   108.58000000    27.68000000
   C     66.79000000   109.02000000    25.06000000
   H     63.22000000   109.41000000    26.61000000
   H     63.61000000   106.62000000    27.28000000
   H     65.72000000   106.92000000    26.40000000
   H     64.73000000   109.40000000    25.02000000
   H     65.17000000   107.85000000    24.26000000
   H     65.06000000   109.53000000    27.79000000
   H     65.43000000   107.94000000    28.56000000
   H     66.62000000   108.87000000    27.63000000
   H     66.97000000   109.26000000    24.01000000
   H     66.91000000   109.96000000    25.61000000
   H     67.47000000   108.27000000    25.47000000
   N     63.30000000   105.43000000    25.04000000
   C     62.72000000   104.67000000    23.95000000
   C     62.23000000   103.30000000    24.39000000
   O     63.05000000   102.40000000    24.58000000
   C     63.72000000   104.51000000    22.81000000
   C     63.22000000   103.72000000    21.61000000
   O     62.01000000   103.47000000    21.46000000
   O     64.04000000   103.28000000    20.77000000
   H     63.85000000   104.95000000    25.74000000
   H     61.88000000   105.18000000    23.48000000
   H     64.60000000   103.99000000    23.20000000
   H     63.97000000   105.50000000    22.42000000
   N     60.91000000   103.27000000    24.60000000
   C     60.26000000   102.08000000    25.10000000
   C     59.33000000   102.49000000    26.24000000
   O     58.12000000   102.52000000    26.04000000
   C     59.57000000   101.32000000    23.98000000
   C     59.35000000    99.84000000    24.24000000
   C     58.10000000    99.40000000    24.67000000
   C     60.44000000    98.96000000    24.17000000
   C     57.97000000    98.06000000    25.05000000
   C     60.27000000    97.60000000    24.46000000
   C     59.06000000    97.17000000    25.01000000
   H     60.43000000   104.14000000    24.39000000
   H     61.08000000   101.39000000    25.32000000
   H     60.12000000   101.43000000    23.04000000
   H     58.60000000   101.69000000    23.65000000
   H     57.26000000   100.08000000    24.75000000
   H     61.39000000    99.33000000    23.83000000
   H     57.07000000    97.66000000    25.50000000
   H     61.05000000    96.92000000    24.15000000
   H     58.91000000    96.14000000    25.29000000
   N     59.82000000   102.62000000    27.48000000
   C     61.21000000   102.65000000    27.86000000
   C     61.86000000   101.28000000    27.99000000
   O     61.28000000   100.46000000    28.70000000
   C     61.22000000   103.46000000    29.16000000
   C     59.88000000   103.20000000    29.84000000
   C     59.00000000   102.99000000    28.61000000
   H     61.76000000   103.23000000    27.12000000
   H     62.08000000   103.33000000    29.81000000
   H     61.16000000   104.49000000    28.78000000
   H     59.94000000   102.30000000    30.45000000
   H     59.50000000   103.97000000    30.52000000
   H     58.43000000   102.08000000    28.79000000
   H     58.28000000   103.80000000    28.49000000
   N     62.97000000   100.99000000    27.30000000
   C     63.82000000    99.85000000    27.56000000
   C     65.26000000   100.34000000    27.54000000
   O     65.60000000   101.14000000    26.67000000
   C     63.56000000    98.73000000    26.56000000
   C     64.60000000    97.62000000    26.66000000
   C     64.14000000    96.30000000    26.07000000
   O     64.07000000    96.16000000    24.83000000
   O     63.64000000    95.38000000    26.74000000
   H     63.24000000   101.63000000    26.57000000
   H     63.61000000    99.49000000    28.57000000
   H     63.61000000    99.14000000    25.55000000
   H     62.61000000    98.19000000    26.61000000
   H     64.69000000    97.43000000    27.73000000
   H     65.58000000    97.94000000    26.32000000
   N     66.11000000    99.98000000    28.50000000
   C     67.45000000   100.52000000    28.67000000
   H     68.12100000   100.06100000    27.94400000
   H     67.43000000   101.59900000    28.51500000
   H     67.80400000   100.30400000    29.67800000
   H     65.77000000    99.23000000    29.09000000
  Ca     60.70000000   102.05700000    19.90000000
   O     61.10000000   100.61700000    17.68000000
   H     60.79000000   101.19700000    16.98000000
   H     61.34000000    99.80700000    17.23000000
   O     62.68000000   103.06700000    18.36000000
   H     63.14000000   103.41700000    17.60000000
   H     63.30000000   103.17700000    19.09000000
   O     59.08000000   103.75700000    21.31000000
   H     58.14000000   103.83700000    21.44000000
   H     59.46000000   104.47700000    21.81000000
   O     62.67000000   100.38700000    20.71000000
   H     63.44000000   100.39700000    21.27000000
   H     62.43000000    99.46700000    20.64000000
   O     58.19000000   101.64700000    18.85000000
   H     57.24000000   101.67700000    18.78000000
   H     58.50000000   102.15700000    18.10000000
   O     59.62000000    99.85700000    21.01000000
   H     58.78000000    99.39700000    21.02000000
   H     60.26000000    99.19700000    21.29000000

Ca 1.00



