%chk=loop2.apoCaM-CA-Ng.Init293.run23.water7.chk
%nprocshared=20
%mem=10GB
%nosave
#b3lyp/svp scf=(tight,noincore,xqc) Test 
#IOP(5/87=12) Density=Current Pop=(MK,readradii) iop(6/33=2) iop(6/42=6)

loop2.apoCaM-CA-Ng.Init293.run23.water7 

   -2  1 
   C     66.80000000    76.13000000    23.66000000
   C     66.82000000    74.99000000    24.67000000
   O     67.28000000    75.15000000    25.80000000
   H     66.95800000    77.07600000    24.17800000
   H     67.59300000    75.98100000    22.92700000
   H     65.83500000    76.15000000    23.15300000
   N     66.26000000    73.80000000    24.41000000
   C     66.29000000    72.58000000    25.19000000
   C     67.68000000    72.01000000    25.44000000
   O     68.06000000    71.79000000    26.59000000
   C     65.37000000    71.53000000    24.60000000
   C     65.53000000    70.19000000    25.30000000
   O     66.02000000    69.21000000    24.68000000
   O     65.29000000    70.01000000    26.51000000
   H     65.78000000    73.70000000    23.53000000
   H     65.81000000    72.88000000    26.12000000
   H     65.63000000    71.48000000    23.54000000
   H     64.32000000    71.82000000    24.53000000
   N     68.46000000    71.79000000    24.38000000
   C     69.87000000    71.43000000    24.42000000
   C     70.72000000    71.95000000    25.57000000
   O     71.58000000    71.20000000    26.02000000
   C     69.86000000    69.91000000    24.33000000
   H     68.01000000    71.97000000    23.50000000
   H     70.30000000    71.79000000    23.49000000
   H     70.85000000    69.46000000    24.45000000
   H     69.09000000    69.44000000    24.93000000
   H     69.59000000    69.65000000    23.30000000
   N     70.52000000    73.21000000    25.98000000
   C     71.43000000    73.87000000    26.89000000
   C     71.56000000    73.24000000    28.27000000
   O     72.66000000    73.24000000    28.82000000
   C     72.74000000    74.39000000    26.29000000
   C     72.57000000    74.75000000    24.82000000
   O     72.24000000    75.88000000    24.41000000
   O     72.63000000    73.91000000    23.90000000
   H     69.91000000    73.81000000    25.44000000
   H     70.89000000    74.78000000    27.13000000
   H     73.52000000    73.65000000    26.47000000
   H     72.93000000    75.25000000    26.93000000
   N     70.43000000    72.77000000    28.79000000
   C     70.31000000    72.24000000    30.14000000
   C     70.21000000    73.31000000    31.22000000
   O     69.60000000    74.33000000    30.93000000
   H     69.69000000    72.60000000    28.13000000
   H     71.07000000    71.53000000    30.48000000
   H     69.38000000    71.67000000    30.08000000
   N     70.55000000    72.95000000    32.46000000
   C     70.30000000    73.65000000    33.71000000
   C     68.89000000    74.22000000    33.74000000
   O     68.75000000    75.39000000    34.06000000
   C     71.47000000    74.55000000    34.10000000
   C     72.76000000    73.80000000    34.43000000
   N     73.44000000    73.29000000    33.40000000
   O     73.09000000    73.45000000    35.56000000
   H     70.94000000    72.03000000    32.60000000
   H     70.26000000    72.89000000    34.48000000
   H     71.20000000    75.07000000    35.02000000
   H     71.76000000    75.34000000    33.41000000
   H     73.21000000    73.40000000    32.43000000
   H     74.28000000    72.77000000    33.61000000
   N     67.87000000    73.38000000    33.54000000
   C     66.49000000    73.81000000    33.64000000
   C     65.98000000    74.70000000    32.53000000
   O     64.76000000    74.85000000    32.49000000
   H     68.17000000    72.47000000    33.22000000
   H     66.33000000    74.32000000    34.59000000
   H     65.76000000    73.00000000    33.61000000
   N     66.77000000    75.17000000    31.56000000
   C     66.40000000    75.85000000    30.34000000
   C     66.85000000    77.30000000    30.37000000
   O     67.99000000    77.54000000    30.74000000
   C     66.94000000    74.97000000    29.21000000
   C     66.63000000    73.48000000    29.34000000
   O     66.13000000    75.39000000    28.14000000
   H     67.72000000    74.83000000    31.51000000
   H     65.32000000    75.90000000    30.20000000
   H     67.99000000    75.17000000    29.01000000
   H     66.73000000    75.32000000    27.39000000
   H     65.59000000    73.54000000    29.67000000
   H     66.65000000    72.94000000    28.39000000
   H     67.24000000    72.96000000    30.08000000
   N     66.00000000    78.16000000    29.78000000
   C     66.43000000    79.48000000    29.35000000
   C     67.84000000    79.45000000    28.80000000
   O     68.24000000    78.53000000    28.08000000
   C     65.31000000    80.07000000    28.49000000
   C     64.11000000    80.42000000    29.36000000
   C     65.94000000    81.28000000    27.80000000
   C     62.75000000    80.35000000    28.67000000
   H     65.12000000    77.77000000    29.47000000
   H     66.50000000    80.14000000    30.21000000
   H     65.00000000    79.34000000    27.75000000
   H     64.29000000    81.42000000    29.77000000
   H     63.99000000    79.87000000    30.29000000
   H     66.38000000    81.99000000    28.49000000
   H     66.70000000    80.88000000    27.13000000
   H     65.20000000    81.74000000    27.15000000
   H     62.00000000    80.64000000    29.40000000
   H     62.74000000    81.06000000    27.84000000
   H     62.58000000    79.35000000    28.28000000
   N     68.64000000    80.48000000    29.08000000
   C     70.05000000    80.49000000    28.75000000
   C     70.97000000    80.74000000    29.93000000
   O     71.55000000    81.82000000    30.05000000
   C     70.33000000    81.47000000    27.61000000
   C     71.74000000    81.41000000    27.05000000
   O     72.23000000    80.32000000    26.68000000
   O     72.31000000    82.47000000    26.73000000
   H     68.29000000    81.20000000    29.70000000
   H     70.35000000    79.53000000    28.31000000
   H     70.16000000    82.51000000    27.89000000
   H     69.69000000    81.27000000    26.76000000
   N     71.01000000    79.77000000    30.85000000
   C     71.84000000    79.64000000    32.03000000
   C     71.78000000    80.77000000    33.06000000
   O     72.86000000    81.09000000    33.56000000
   C     71.37000000    78.36000000    32.71000000
   C     72.19000000    78.06000000    33.95000000
   C     71.51000000    78.27000000    35.16000000
   C     73.46000000    77.49000000    33.95000000
   C     72.16000000    77.93000000    36.36000000
   C     74.08000000    77.18000000    35.17000000
   C     73.47000000    77.44000000    36.40000000
   H     70.37000000    79.01000000    30.66000000
   H     72.89000000    79.54000000    31.80000000
   H     71.46000000    77.57000000    31.96000000
   H     70.34000000    78.46000000    33.05000000
   H     70.52000000    78.70000000    35.20000000
   H     73.94000000    77.28000000    33.01000000
   H     71.75000000    78.24000000    37.31000000
   H     75.08000000    76.77000000    35.16000000
   H     73.95000000    77.27000000    37.36000000
   N     70.66000000    81.42000000    33.37000000
   C     69.31000000    81.11000000    32.94000000
   C     68.68000000    82.07000000    31.94000000
   O     67.57000000    81.84000000    31.49000000
   C     68.49000000    81.05000000    34.23000000
   C     69.09000000    82.10000000    35.16000000
   C     70.49000000    82.22000000    34.57000000
   H     69.28000000    80.14000000    32.45000000
   H     67.43000000    81.20000000    34.04000000
   H     68.52000000    80.06000000    34.70000000
   H     68.52000000    83.01000000    34.99000000
   H     69.03000000    81.82000000    36.21000000
   H     70.62000000    83.27000000    34.32000000
   H     71.23000000    81.81000000    35.26000000
   N     69.39000000    83.19000000    31.75000000
   C     68.76000000    84.46000000    31.46000000
   C     67.83000000    84.46000000    30.26000000
   O     68.15000000    83.91000000    29.21000000
   C     69.77000000    85.60000000    31.47000000
   C     69.28000000    87.01000000    31.14000000
   C     70.37000000    88.04000000    30.89000000
   O     70.96000000    88.08000000    29.79000000
   O     70.60000000    88.88000000    31.78000000
   H     70.24000000    83.20000000    32.29000000
   H     68.16000000    84.77000000    32.32000000
   H     70.54000000    85.26000000    30.77000000
   H     70.20000000    85.72000000    32.46000000
   H     68.53000000    87.33000000    31.86000000
   H     68.78000000    86.93000000    30.18000000
   N     66.67000000    85.09000000    30.42000000
   C     65.59000000    85.23000000    29.45000000
   H     64.76000000    85.77000000    29.90600000
   H     65.95000000    85.78300000    28.58200000
   H     65.25100000    84.24200000    29.13700000
   H     66.42000000    85.22000000    31.39000000
  Ca     71.84000000    78.35000000    24.97000000
   O     72.02000000    77.39000000    27.59000000
   H     71.26000000    77.29000000    28.15000000
   H     72.66000000    77.86000000    28.13000000
   O     74.65000000    78.18000000    25.48000000
   H     75.05000000    77.54000000    26.07000000
   H     75.38000000    78.62000000    25.07000000
   O     69.75000000    80.25000000    24.47000000
   H     69.09000000    79.98000000    23.83000000
   H     69.96000000    81.15000000    24.24000000
   O     73.50000000    77.67000000    22.99000000
   H     73.43000000    76.86000000    22.48000000
   H     74.38000000    77.64000000    23.37000000
   O     70.33000000    78.08000000    22.51000000
   H     69.87000000    78.78000000    22.04000000
   H     70.22000000    77.31000000    21.95000000
   O     72.51000000    80.57000000    23.64000000
   H     72.21000000    80.95000000    22.81000000
   H     73.12000000    81.22000000    24.00000000
   O     69.61000000    77.29000000    25.89000000
   H     69.13000000    77.70000000    26.60000000
   H     68.98000000    76.71000000    25.47000000

Ca 1.00



