%chk=loop1.holoCaM.run57.water1.chk
%nprocshared=20
%mem=10GB
%nosave
#b3lyp/svp scf=(tight,noincore,xqc) Test 
#IOP(5/87=12) Density=Current Pop=(MK,readradii) iop(6/33=2) iop(6/42=6)

loop1.holoCaM.run57.water1 

   0  1 
   C     41.59000000    75.90000000   -25.72000000
   C     40.36000000    75.02000000   -25.73000000
   O     40.23000000    74.18000000   -26.62000000
   H     42.40300000    75.39300000   -26.24000000
   H     41.36800000    76.84100000   -26.22300000
   H     41.88700000    76.09900000   -24.69000000
   N     39.39000000    75.24000000   -24.84000000
   C     38.07000000    74.64000000   -24.92000000
   C     37.13000000    75.20000000   -25.97000000
   O     36.75000000    76.37000000   -25.88000000
   C     37.41000000    74.73000000   -23.54000000
   C     36.02000000    74.13000000   -23.62000000
   O     35.17000000    74.50000000   -22.78000000
   O     35.66000000    73.36000000   -24.54000000
   H     39.63000000    75.92000000   -24.13000000
   H     38.26000000    73.59000000   -25.12000000
   H     37.30000000    75.71000000   -23.08000000
   H     38.00000000    74.21000000   -22.79000000
   N     36.85000000    74.48000000   -27.05000000
   C     36.02000000    74.86000000   -28.18000000
   C     34.57000000    75.00000000   -27.73000000
   O     33.90000000    75.74000000   -28.45000000
   C     36.18000000    73.86000000   -29.33000000
   C     37.51000000    73.94000000   -30.08000000
   C     37.92000000    75.27000000   -30.70000000
   C     36.97000000    75.62000000   -31.83000000
   N     37.24000000    76.97000000   -32.35000000
   H     37.28000000    73.57000000   -27.07000000
   H     36.26000000    75.87000000   -28.51000000
   H     35.31000000    74.02000000   -29.97000000
   H     36.02000000    72.89000000   -28.87000000
   H     37.49000000    73.15000000   -30.83000000
   H     38.18000000    73.76000000   -29.24000000
   H     38.89000000    75.11000000   -31.18000000
   H     38.03000000    76.03000000   -29.93000000
   H     35.92000000    75.56000000   -31.52000000
   H     37.06000000    74.92000000   -32.66000000
   H     36.42000000    77.54000000   -32.50000000
   H     37.66000000    77.53000000   -31.63000000
   H     37.85000000    76.99000000   -33.16000000
   N     34.14000000    74.54000000   -26.55000000
   C     32.74000000    74.27000000   -26.27000000
   C     32.10000000    75.10000000   -25.17000000
   O     30.87000000    75.17000000   -25.17000000
   C     32.54000000    72.79000000   -25.98000000
   C     33.23000000    71.91000000   -27.02000000
   O     32.98000000    72.12000000   -28.23000000
   O     34.12000000    71.12000000   -26.64000000
   H     34.77000000    74.04000000   -25.94000000
   H     32.11000000    74.49000000   -27.13000000
   H     31.47000000    72.57000000   -25.99000000
   H     32.99000000    72.50000000   -25.03000000
   N     32.88000000    75.41000000   -24.13000000
   C     32.40000000    76.03000000   -22.91000000
   C     31.98000000    74.97000000   -21.91000000
   O     31.13000000    75.30000000   -21.08000000
   H     33.87000000    75.21000000   -24.13000000
   H     31.57000000    76.70000000   -23.10000000
   H     33.24000000    76.49000000   -22.38000000
   N     32.37000000    73.70000000   -22.04000000
   C     31.98000000    72.56000000   -21.22000000
   C     32.87000000    72.40000000   -20.00000000
   O     32.68000000    71.54000000   -19.14000000
   C     31.95000000    71.33000000   -22.11000000
   C     33.24000000    70.93000000   -22.82000000
   O     33.21000000    70.13000000   -23.78000000
   O     34.31000000    71.40000000   -22.40000000
   H     33.11000000    73.51000000   -22.70000000
   H     31.01000000    72.76000000   -20.76000000
   H     31.25000000    71.48000000   -22.93000000
   H     31.57000000    70.53000000   -21.47000000
   N     33.97000000    73.16000000   -19.89000000
   C     34.85000000    73.05000000   -18.75000000
   C     35.73000000    71.81000000   -18.73000000
   O     36.37000000    71.58000000   -17.71000000
   H     34.09000000    73.94000000   -20.53000000
   H     34.32000000    73.22000000   -17.82000000
   H     35.54000000    73.90000000   -18.81000000
   N     35.93000000    71.06000000   -19.82000000
   C     37.04000000    70.13000000   -19.96000000
   C     37.74000000    70.33000000   -21.30000000
   O     37.13000000    70.67000000   -22.31000000
   C     36.63000000    68.66000000   -19.87000000
   C     36.07000000    68.34000000   -18.48000000
   O     35.71000000    68.31000000   -20.87000000
   H     35.42000000    71.32000000   -20.65000000
   H     37.71000000    70.28000000   -19.12000000
   H     37.53000000    68.05000000   -19.93000000
   H     34.87000000    68.63000000   -20.53000000
   H     35.33000000    69.06000000   -18.14000000
   H     35.61000000    67.36000000   -18.55000000
   H     36.93000000    68.37000000   -17.81000000
   N     39.04000000    70.03000000   -21.28000000
   C     39.92000000    69.86000000   -22.42000000
   C     40.05000000    68.39000000   -22.82000000
   O     40.44000000    67.61000000   -21.96000000
   C     41.15000000    70.74000000   -22.22000000
   C     40.80000000    72.22000000   -22.30000000
   C     42.32000000    70.40000000   -23.15000000
   C     41.86000000    73.17000000   -21.73000000
   H     39.49000000    69.91000000   -20.38000000
   H     39.43000000    70.38000000   -23.24000000
   H     41.56000000    70.58000000   -21.23000000
   H     39.90000000    72.40000000   -21.71000000
   H     40.47000000    72.53000000   -23.29000000
   H     42.01000000    70.66000000   -24.16000000
   H     43.17000000    70.96000000   -22.76000000
   H     42.57000000    69.34000000   -23.10000000
   H     41.56000000    74.21000000   -21.76000000
   H     41.91000000    72.91000000   -20.68000000
   H     42.86000000    73.08000000   -22.17000000
   N     39.79000000    68.03000000   -24.08000000
   C     39.99000000    66.72000000   -24.67000000
   C     41.31000000    66.66000000   -25.44000000
   O     41.91000000    67.69000000   -25.73000000
   C     38.82000000    66.19000000   -25.49000000
   C     38.50000000    66.93000000   -26.79000000
   O     39.11000000    64.84000000   -25.76000000
   H     39.34000000    68.76000000   -24.62000000
   H     40.09000000    66.04000000   -23.83000000
   H     37.92000000    66.26000000   -24.87000000
   H     38.33000000    64.52000000   -26.22000000
   H     39.23000000    66.63000000   -27.54000000
   H     37.47000000    66.81000000   -27.13000000
   H     38.62000000    67.99000000   -26.55000000
   N     41.76000000    65.51000000   -25.97000000
   C     43.01000000    65.34000000   -26.68000000
   C     43.12000000    66.20000000   -27.93000000
   O     44.06000000    66.98000000   -28.09000000
   C     43.27000000    63.97000000   -27.28000000
   C     43.55000000    62.92000000   -26.21000000
   O     42.25000000    63.42000000   -28.10000000
   H     41.12000000    64.74000000   -25.85000000
   H     43.79000000    65.58000000   -25.96000000
   H     44.19000000    64.03000000   -27.87000000
   H     42.49000000    62.57000000   -28.48000000
   H     43.73000000    61.94000000   -26.66000000
   H     44.43000000    63.28000000   -25.68000000
   H     42.72000000    62.79000000   -25.52000000
   N     41.99000000    66.33000000   -28.63000000
   C     41.78000000    67.24000000   -29.74000000
   C     42.02000000    68.70000000   -29.39000000
   O     42.34000000    69.54000000   -30.23000000
   C     40.48000000    66.92000000   -30.48000000
   C     40.38000000    67.44000000   -31.91000000
   C     39.24000000    66.90000000   -32.77000000
   C     39.06000000    65.40000000   -32.96000000
   N     40.13000000    64.86000000   -33.81000000
   H     41.19000000    65.95000000   -28.15000000
   H     42.56000000    66.96000000   -30.46000000
   H     39.64000000    67.23000000   -29.86000000
   H     40.49000000    65.83000000   -30.57000000
   H     41.25000000    67.12000000   -32.49000000
   H     40.43000000    68.52000000   -31.95000000
   H     39.28000000    67.34000000   -33.77000000
   H     38.28000000    67.27000000   -32.43000000
   H     38.07000000    65.24000000   -33.41000000
   H     39.05000000    64.97000000   -31.96000000
   H     39.97000000    63.91000000   -34.14000000
   H     40.22000000    65.43000000   -34.64000000
   H     40.96000000    64.70000000   -33.27000000
   N     41.68000000    69.17000000   -28.19000000
   C     41.85000000    70.50000000   -27.65000000
   C     43.24000000    70.70000000   -27.07000000
   O     43.75000000    71.80000000   -27.28000000
   C     40.85000000    70.74000000   -26.51000000
   C     39.50000000    71.04000000   -27.15000000
   C     38.35000000    70.99000000   -26.16000000
   O     38.22000000    70.18000000   -25.21000000
   O     37.37000000    71.75000000   -26.33000000
   H     41.48000000    68.46000000   -27.50000000
   H     41.81000000    71.29000000   -28.40000000
   H     41.12000000    71.67000000   -26.01000000
   H     40.84000000    69.87000000   -25.86000000
   H     39.30000000    70.31000000   -27.93000000
   H     39.45000000    71.93000000   -27.77000000
   N     43.79000000    69.72000000   -26.35000000
   C     45.15000000    69.69000000   -25.85000000
   H     45.76800000    70.36800000   -26.43800000
   H     45.16100000    70.00300000   -24.80600000
   H     45.54500000    68.67700000   -25.93000000
   H     43.23000000    68.91000000   -26.16000000
  Ca     35.68000000    70.78000000   -24.59300000
   O     35.98000000    68.18000000   -23.78300000
   H     35.94000000    67.37000000   -24.29300000
   H     35.86000000    67.91000000   -22.87300000

Ca 1.00



