%chk=loop4.holoCaM.run39.water2.chk
%nprocshared=20
%mem=10GB
%nosave
#b3lyp/svp scf=(tight,noincore,xqc) Test 
#IOP(5/87=12) Density=Current Pop=(MK,readradii) iop(6/33=2) iop(6/42=6)

loop4.holoCaM.run39.water2 

   -3  1 
   C     75.35000000    60.53000000    80.54000000
   C     75.78000000    61.83000000    79.89000000
   O     75.09000000    62.84000000    80.01000000
   H     74.35700000    60.25700000    80.18200000
   H     76.05800000    59.74200000    80.28200000
   H     75.32400000    60.65600000    81.62200000
   N     76.87000000    61.80000000    79.12000000
   C     77.40000000    62.86000000    78.28000000
   C     76.62000000    62.98000000    76.98000000
   O     76.27000000    62.06000000    76.25000000
   C     78.85000000    62.51000000    77.96000000
   C     79.41000000    63.35000000    76.83000000
   O     79.94000000    62.70000000    75.90000000
   O     79.26000000    64.59000000    76.83000000
   H     77.50000000    61.02000000    79.22000000
   H     77.40000000    63.80000000    78.84000000
   H     78.86000000    61.46000000    77.65000000
   H     79.57000000    62.66000000    78.76000000
   N     76.39000000    64.23000000    76.58000000
   C     75.69000000    64.57000000    75.35000000
   C     76.58000000    65.06000000    74.22000000
   O     76.10000000    65.10000000    73.09000000
   C     74.48000000    65.42000000    75.72000000
   C     74.88000000    66.89000000    75.88000000
   C     73.67000000    64.89000000    76.89000000
   C     73.70000000    67.81000000    76.20000000
   H     76.66000000    65.02000000    77.15000000
   H     75.30000000    63.68000000    74.87000000
   H     73.86000000    65.49000000    74.83000000
   H     75.33000000    67.20000000    74.94000000
   H     75.63000000    66.91000000    76.67000000
   H     72.69000000    65.35000000    77.06000000
   H     73.54000000    63.81000000    76.80000000
   H     74.26000000    65.05000000    77.79000000
   H     73.51000000    67.62000000    77.25000000
   H     73.96000000    68.86000000    76.09000000
   H     72.87000000    67.57000000    75.53000000
   N     77.83000000    65.44000000    74.49000000
   C     78.77000000    65.97000000    73.52000000
   C     79.74000000    65.08000000    72.75000000
   O     80.42000000    65.53000000    71.83000000
   C     79.60000000    67.10000000    74.11000000
   C     78.79000000    68.06000000    74.97000000
   O     78.97000000    68.07000000    76.21000000
   O     77.96000000    68.78000000    74.39000000
   H     78.06000000    65.45000000    75.47000000
   H     78.20000000    66.52000000    72.77000000
   H     80.07000000    67.63000000    73.29000000
   H     80.36000000    66.67000000    74.76000000
   N     79.89000000    63.81000000    73.14000000
   C     80.96000000    62.95000000    72.70000000
   C     82.25000000    63.12000000    73.48000000
   O     83.20000000    62.47000000    73.04000000
   H     79.29000000    63.50000000    73.89000000
   H     81.12000000    63.03000000    71.62000000
   H     80.68000000    61.91000000    72.89000000
   N     82.33000000    64.00000000    74.48000000
   C     83.51000000    64.22000000    75.30000000
   C     83.68000000    63.14000000    76.37000000
   O     84.81000000    62.81000000    76.71000000
   C     83.60000000    65.64000000    75.84000000
   C     82.51000000    66.09000000    76.81000000
   O     81.94000000    67.20000000    76.71000000
   O     82.19000000    65.36000000    77.77000000
   H     81.46000000    64.40000000    74.80000000
   H     84.39000000    64.14000000    74.66000000
   H     83.45000000    66.22000000    74.93000000
   H     84.56000000    65.88000000    76.29000000
   N     82.61000000    62.47000000    76.80000000
   C     82.57000000    61.45000000    77.83000000
   C     82.74000000    61.84000000    79.29000000
   O     83.37000000    61.17000000    80.10000000
   H     81.74000000    62.86000000    76.45000000
   H     83.26000000    60.65000000    77.56000000
   H     81.62000000    60.92000000    77.81000000
   N     82.24000000    63.04000000    79.58000000
   C     82.06000000    63.60000000    80.90000000
   C     80.77000000    64.41000000    81.04000000
   O     80.13000000    64.68000000    80.03000000
   C     83.27000000    64.46000000    81.27000000
   C     84.58000000    63.68000000    81.36000000
   C     85.70000000    64.58000000    81.86000000
   N     86.62000000    65.04000000    81.01000000
   O     85.86000000    64.92000000    83.03000000
   H     82.06000000    63.63000000    78.78000000
   H     82.02000000    62.82000000    81.66000000
   H     83.11000000    64.96000000    82.23000000
   H     83.36000000    65.27000000    80.54000000
   H     84.74000000    63.41000000    80.31000000
   H     84.45000000    62.76000000    81.92000000
   H     86.66000000    64.64000000    80.08000000
   H     87.39000000    65.52000000    81.45000000
   N     80.34000000    64.70000000    82.27000000
   C     79.20000000    65.57000000    82.48000000
   C     79.47000000    66.91000000    83.15000000
   O     79.93000000    66.94000000    84.29000000
   C     78.05000000    64.82000000    83.14000000
   C     77.37000000    63.77000000    82.26000000
   C     78.49000000    64.22000000    84.46000000
   H     80.85000000    64.31000000    83.04000000
   H     78.78000000    65.76000000    81.49000000
   H     77.26000000    65.52000000    83.42000000
   H     78.07000000    62.94000000    82.12000000
   H     76.44000000    63.50000000    82.75000000
   H     77.06000000    64.13000000    81.28000000
   H     79.28000000    63.50000000    84.25000000
   H     78.92000000    64.99000000    85.10000000
   H     77.64000000    63.78000000    84.99000000
   N     79.06000000    68.05000000    82.58000000
   C     78.84000000    69.31000000    83.25000000
   C     77.54000000    69.31000000    84.04000000
   O     76.78000000    68.36000000    83.85000000
   C     78.91000000    70.42000000    82.20000000
   C     77.59000000    70.99000000    81.72000000
   N     77.16000000    70.65000000    80.50000000
   O     76.83000000    71.74000000    82.33000000
   H     78.72000000    67.87000000    81.64000000
   H     79.67000000    69.48000000    83.94000000
   H     79.53000000    70.18000000    81.34000000
   H     79.33000000    71.28000000    82.73000000
   H     77.65000000    69.99000000    79.91000000
   H     76.35000000    71.12000000    80.12000000
   N     77.32000000    70.26000000    84.95000000
   C     76.17000000    70.38000000    85.83000000
   C     74.83000000    70.18000000    85.15000000
   O     74.02000000    69.37000000    85.61000000
   C     76.24000000    71.74000000    86.52000000
   C     75.10000000    72.08000000    87.45000000
   C     74.81000000    71.30000000    88.57000000
   C     74.20000000    73.11000000    87.15000000
   C     73.74000000    71.51000000    89.46000000
   C     73.11000000    73.35000000    88.00000000
   C     72.83000000    72.54000000    89.12000000
   O     71.72000000    72.74000000    89.87000000
   H     78.00000000    71.00000000    85.01000000
   H     76.20000000    69.58000000    86.56000000
   H     76.29000000    72.39000000    85.64000000
   H     77.14000000    71.80000000    87.12000000
   H     75.41000000    70.41000000    88.74000000
   H     74.35000000    73.57000000    86.19000000
   H     73.45000000    70.94000000    90.32000000
   H     72.39000000    74.13000000    87.80000000
   H     71.24000000    73.46000000    89.45000000
   N     74.57000000    70.88000000    84.04000000
   C     73.37000000    70.68000000    83.25000000
   C     73.23000000    69.31000000    82.59000000
   O     72.13000000    68.94000000    82.21000000
   C     73.25000000    71.84000000    82.26000000
   C     73.17000000    73.19000000    82.96000000
   C     73.58000000    74.42000000    82.15000000
   O     73.06000000    74.57000000    81.02000000
   O     74.29000000    75.25000000    82.76000000
   H     75.31000000    71.48000000    83.72000000
   H     72.50000000    70.83000000    83.89000000
   H     72.36000000    71.82000000    81.63000000
   H     74.11000000    71.91000000    81.59000000
   H     73.76000000    73.19000000    83.87000000
   H     72.20000000    73.46000000    83.38000000
   N     74.30000000    68.54000000    82.39000000
   C     74.23000000    67.15000000    81.97000000
   C     74.00000000    66.23000000    83.15000000
   O     73.22000000    65.27000000    83.11000000
   C     75.44000000    66.62000000    81.20000000
   C     75.68000000    67.26000000    79.84000000
   C     77.10000000    67.12000000    79.31000000
   O     78.01000000    67.76000000    79.89000000
   O     77.36000000    66.26000000    78.45000000
   H     75.21000000    68.89000000    82.65000000
   H     73.29000000    66.95000000    81.46000000
   H     75.52000000    65.54000000    81.10000000
   H     76.26000000    66.92000000    81.85000000
   H     75.54000000    68.33000000    79.99000000
   H     74.93000000    66.96000000    79.10000000
   N     74.53000000    66.61000000    84.31000000
   C     74.46000000    65.88000000    85.56000000
   H     73.43500000    65.89400000    85.93100000
   H     74.77300000    64.84900000    85.39700000
   H     75.11700000    66.34900000    86.29200000
   H     75.22000000    67.36000000    84.33000000
  Ca     79.88000000    66.67000000    78.23000000
   O     81.82000000    67.52000000    80.20000000
   H     81.87000000    68.24000000    80.83000000
   H     82.73000000    67.38000000    79.92000000
   O     79.81000000    69.62000000    78.51000000
   H     79.96000000    70.46000000    78.94000000
   H     78.98000000    69.73000000    78.04000000

Ca 1.00



