%chk=loop2.holoCaM-CaMKII.run16.water2.chk
%nprocshared=20
%mem=10GB
%nosave
#b3lyp/svp scf=(tight,noincore,xqc) Test 
#IOP(5/87=12) Density=Current Pop=(MK,readradii) iop(6/33=2) iop(6/42=6)

loop2.holoCaM-CaMKII.run16.water2 

   -2  1 
   C     68.75000000    64.85000000    -3.15000000
   C     69.37000000    63.95000000    -4.21000000
   O     70.56000000    63.68000000    -4.14000000
   H     67.74400000    64.49900000    -2.92000000
   H     69.36000000    64.82200000    -2.24700000
   H     68.70100000    65.87300000    -3.52400000
   N     68.57000000    63.27000000    -5.05000000
   C     69.10000000    62.15000000    -5.80000000
   C     70.15000000    62.46000000    -6.85000000
   O     69.90000000    63.15000000    -7.84000000
   C     67.94000000    61.46000000    -6.51000000
   C     68.41000000    60.20000000    -7.23000000
   O     69.46000000    59.61000000    -6.90000000
   O     67.70000000    59.77000000    -8.17000000
   H     67.59000000    63.49000000    -5.11000000
   H     69.48000000    61.52000000    -5.00000000
   H     67.53000000    62.18000000    -7.22000000
   H     67.29000000    61.05000000    -5.74000000
   N     71.31000000    61.79000000    -6.90000000
   C     72.25000000    61.89000000    -8.00000000
   C     72.58000000    60.61000000    -8.76000000
   O     73.62000000    60.56000000    -9.41000000
   C     73.35000000    62.82000000    -7.51000000
   H     71.65000000    61.24000000    -6.13000000
   H     71.75000000    62.41000000    -8.83000000
   H     73.03000000    63.86000000    -7.53000000
   H     73.48000000    62.46000000    -6.48000000
   H     74.29000000    62.78000000    -8.06000000
   N     71.72000000    59.59000000    -8.74000000
   C     71.91000000    58.44000000    -9.59000000
   C     70.68000000    57.73000000   -10.14000000
   O     70.82000000    56.97000000   -11.09000000
   C     72.76000000    57.40000000    -8.85000000
   C     72.23000000    57.22000000    -7.44000000
   O     71.02000000    56.95000000    -7.27000000
   O     72.92000000    57.46000000    -6.43000000
   H     70.95000000    59.64000000    -8.09000000
   H     72.40000000    58.80000000   -10.49000000
   H     73.81000000    57.71000000    -8.85000000
   H     72.59000000    56.45000000    -9.35000000
   N     69.51000000    57.82000000    -9.50000000
   C     68.36000000    57.05000000    -9.92000000
   C     68.15000000    55.72000000    -9.21000000
   O     67.15000000    55.03000000    -9.40000000
   H     69.43000000    58.48000000    -8.74000000
   H     68.53000000    56.91000000   -10.99000000
   H     67.45000000    57.65000000    -9.85000000
   N     68.96000000    55.34000000    -8.22000000
   C     68.84000000    54.06000000    -7.55000000
   C     67.67000000    53.87000000    -6.60000000
   O     67.59000000    52.82000000    -5.96000000
   C     70.20000000    53.70000000    -6.94000000
   C     70.54000000    54.60000000    -5.77000000
   N     71.65000000    54.42000000    -5.04000000
   O     69.73000000    55.38000000    -5.28000000
   H     69.68000000    55.97000000    -7.92000000
   H     68.71000000    53.18000000    -8.18000000
   H     71.01000000    53.83000000    -7.66000000
   H     70.25000000    52.66000000    -6.62000000
   H     72.27000000    53.67000000    -5.29000000
   H     71.78000000    54.86000000    -4.14000000
   N     66.71000000    54.80000000    -6.53000000
   C     65.68000000    54.67000000    -5.52000000
   C     65.94000000    54.94000000    -4.05000000
   O     65.00000000    54.90000000    -3.25000000
   H     66.80000000    55.67000000    -7.03000000
   H     65.27000000    53.66000000    -5.56000000
   H     64.81000000    55.26000000    -5.81000000
   N     67.15000000    55.27000000    -3.61000000
   C     67.61000000    55.27000000    -2.23000000
   C     68.54000000    56.44000000    -1.96000000
   O     69.32000000    56.76000000    -2.86000000
   C     68.34000000    53.99000000    -1.83000000
   C     67.54000000    52.71000000    -2.08000000
   O     69.61000000    53.79000000    -2.42000000
   H     67.82000000    55.49000000    -4.33000000
   H     66.79000000    55.42000000    -1.53000000
   H     68.54000000    54.10000000    -0.77000000
   H     70.05000000    54.61000000    -2.65000000
   H     67.95000000    51.88000000    -1.52000000
   H     66.54000000    52.97000000    -1.74000000
   H     67.55000000    52.46000000    -3.14000000
   N     68.67000000    56.97000000    -0.74000000
   C     69.60000000    57.96000000    -0.25000000
   C     70.94000000    57.27000000    -0.03000000
   O     71.05000000    56.29000000     0.71000000
   C     69.19000000    58.76000000     0.98000000
   C     67.71000000    59.09000000     0.82000000
   C     70.10000000    59.92000000     1.35000000
   C     67.07000000    59.73000000     2.05000000
   H     68.10000000    56.68000000     0.04000000
   H     69.78000000    58.71000000    -1.02000000
   H     69.20000000    58.05000000     1.81000000
   H     67.11000000    58.21000000     0.58000000
   H     67.70000000    59.76000000    -0.04000000
   H     71.03000000    59.48000000     1.71000000
   H     70.28000000    60.60000000     0.52000000
   H     69.72000000    60.39000000     2.26000000
   H     66.01000000    59.82000000     1.80000000
   H     67.08000000    59.13000000     2.96000000
   H     67.52000000    60.71000000     2.25000000
   N     71.98000000    57.69000000    -0.76000000
   C     73.37000000    57.43000000    -0.47000000
   C     74.00000000    58.36000000     0.55000000
   O     73.53000000    59.47000000     0.81000000
   C     74.13000000    57.48000000    -1.79000000
   C     73.52000000    56.61000000    -2.88000000
   O     72.48000000    56.85000000    -3.53000000
   O     74.16000000    55.56000000    -3.08000000
   H     71.90000000    58.37000000    -1.51000000
   H     73.44000000    56.43000000    -0.02000000
   H     75.17000000    57.17000000    -1.68000000
   H     74.17000000    58.51000000    -2.15000000
   N     75.19000000    58.08000000     1.09000000
   C     75.78000000    58.93000000     2.11000000
   C     76.17000000    60.26000000     1.50000000
   O     75.78000000    61.28000000     2.08000000
   C     76.94000000    58.18000000     2.76000000
   C     77.64000000    59.00000000     3.81000000
   C     79.01000000    59.27000000     3.70000000
   C     76.89000000    59.63000000     4.81000000
   C     79.62000000    60.16000000     4.59000000
   C     77.50000000    60.46000000     5.75000000
   C     78.89000000    60.63000000     5.69000000
   H     75.67000000    57.22000000     0.86000000
   H     75.06000000    59.00000000     2.93000000
   H     77.63000000    57.87000000     1.97000000
   H     76.60000000    57.24000000     3.19000000
   H     79.53000000    58.84000000     2.86000000
   H     75.84000000    59.37000000     4.85000000
   H     80.67000000    60.40000000     4.49000000
   H     76.84000000    60.86000000     6.50000000
   H     79.36000000    61.26000000     6.43000000
   N     76.82000000    60.42000000     0.34000000
   C     77.03000000    61.73000000    -0.23000000
   C     75.74000000    62.47000000    -0.55000000
   O     75.84000000    63.67000000    -0.81000000
   C     77.86000000    61.57000000    -1.49000000
   C     78.46000000    60.19000000    -1.29000000
   C     77.48000000    59.39000000    -0.44000000
   H     77.67000000    62.26000000     0.48000000
   H     77.24000000    61.54000000    -2.39000000
   H     78.65000000    62.32000000    -1.55000000
   H     78.74000000    59.66000000    -2.20000000
   H     79.40000000    60.21000000    -0.74000000
   H     76.80000000    59.01000000    -1.21000000
   H     78.02000000    58.65000000     0.15000000
   N     74.59000000    61.79000000    -0.68000000
   C     73.29000000    62.43000000    -0.77000000
   C     72.59000000    62.79000000     0.53000000
   O     71.77000000    63.70000000     0.63000000
   C     72.34000000    61.58000000    -1.62000000
   C     72.84000000    61.29000000    -3.03000000
   C     71.99000000    60.15000000    -3.58000000
   O     71.94000000    59.99000000    -4.82000000
   O     71.23000000    59.45000000    -2.88000000
   H     74.54000000    60.81000000    -0.48000000
   H     73.31000000    63.39000000    -1.27000000
   H     71.40000000    62.11000000    -1.76000000
   H     72.15000000    60.66000000    -1.06000000
   H     73.91000000    61.10000000    -3.08000000
   H     72.77000000    62.11000000    -3.75000000
   N     73.03000000    62.16000000     1.62000000
   C     72.65000000    62.55000000     2.96000000
   H     71.61700000    62.25400000     3.14500000
   H     73.30300000    62.05800000     3.68100000
   H     72.74100000    63.63100000     3.06400000
   H     73.72000000    61.43000000     1.49000000
  Ca     70.48000000    57.92000000    -4.87700000
   O     68.54000000    59.42000000    -3.52700000
   H     69.33000000    59.74000000    -3.09700000
   H     68.04000000    60.22000000    -3.72700000
   O     67.75000000    57.60000000    -5.40700000
   H     66.96000000    57.56000000    -5.93700000
   H     67.58000000    58.30000000    -4.76700000

Ca 1.00



