%chk=loop3.holoCaM.run57.water2.chk
%nprocshared=20
%mem=10GB
%nosave
#b3lyp/svp scf=(tight,noincore,xqc) Test 
#IOP(5/87=12) Density=Current Pop=(MK,readradii) iop(6/33=2) iop(6/42=6)

loop3.holoCaM.run57.water2 

   0  1 
   C     64.49000000    56.73000000    -6.01000000
   C     64.07000000    57.49000000    -4.76000000
   O     64.24000000    57.01000000    -3.64000000
   H     65.51200000    56.37100000    -5.89000000
   H     63.82300000    55.88100000    -6.16100000
   H     64.43700000    57.39300000    -6.87400000
   N     63.62000000    58.75000000    -4.88000000
   C     63.18000000    59.57000000    -3.77000000
   C     61.87000000    59.03000000    -3.23000000
   O     60.81000000    59.63000000    -3.44000000
   C     63.10000000    61.04000000    -4.19000000
   C     62.88000000    61.94000000    -2.99000000
   O     62.71000000    63.15000000    -3.27000000
   O     62.89000000    61.49000000    -1.82000000
   H     63.61000000    59.16000000    -5.80000000
   H     63.91000000    59.50000000    -2.96000000
   H     62.34000000    61.12000000    -4.96000000
   H     64.11000000    61.30000000    -4.51000000
   N     61.87000000    57.94000000    -2.47000000
   C     60.72000000    57.20000000    -1.99000000
   C     59.81000000    58.01000000    -1.08000000
   O     58.60000000    57.80000000    -1.12000000
   C     61.26000000    55.93000000    -1.35000000
   C     61.85000000    54.80000000    -2.17000000
   C     60.83000000    54.33000000    -3.21000000
   C     61.34000000    53.16000000    -4.05000000
   N     60.37000000    52.87000000    -5.11000000
   H     62.72000000    57.39000000    -2.39000000
   H     60.20000000    57.00000000    -2.93000000
   H     60.51000000    55.54000000    -0.65000000
   H     61.95000000    56.22000000    -0.55000000
   H     62.12000000    53.95000000    -1.55000000
   H     62.73000000    55.28000000    -2.61000000
   H     60.61000000    55.17000000    -3.86000000
   H     59.87000000    54.22000000    -2.70000000
   H     61.49000000    52.28000000    -3.42000000
   H     62.29000000    53.52000000    -4.42000000
   H     59.42000000    52.76000000    -4.79000000
   H     60.43000000    53.50000000    -5.90000000
   H     60.60000000    51.98000000    -5.54000000
   N     60.32000000    58.95000000    -0.29000000
   C     59.51000000    59.86000000     0.50000000
   C     59.41000000    61.29000000    -0.03000000
   O     58.63000000    62.09000000     0.47000000
   C     60.05000000    59.89000000     1.93000000
   C     61.51000000    60.14000000     2.27000000
   O     62.01000000    60.03000000     3.41000000
   O     62.28000000    60.43000000     1.34000000
   H     61.33000000    59.06000000    -0.32000000
   H     58.51000000    59.43000000     0.53000000
   H     59.83000000    58.89000000     2.31000000
   H     59.40000000    60.60000000     2.44000000
   N     60.03000000    61.55000000    -1.18000000
   C     59.73000000    62.76000000    -1.92000000
   C     60.27000000    64.04000000    -1.29000000
   O     59.58000000    65.06000000    -1.28000000
   H     60.71000000    60.98000000    -1.68000000
   H     58.65000000    62.78000000    -1.98000000
   H     60.14000000    62.61000000    -2.92000000
   N     61.45000000    63.95000000    -0.69000000
   C     62.01000000    64.97000000     0.19000000
   C     63.12000000    65.78000000    -0.46000000
   O     63.73000000    66.60000000     0.22000000
   C     62.36000000    64.39000000     1.55000000
   C     63.68000000    63.63000000     1.52000000
   N     64.49000000    63.61000000     2.58000000
   O     64.05000000    63.06000000     0.50000000
   H     61.96000000    63.09000000    -0.81000000
   H     61.23000000    65.70000000     0.42000000
   H     61.67000000    63.64000000     1.94000000
   H     62.48000000    65.14000000     2.33000000
   H     64.19000000    63.87000000     3.51000000
   H     65.41000000    63.21000000     2.52000000
   N     63.39000000    65.58000000    -1.75000000
   C     64.41000000    66.24000000    -2.55000000
   C     65.63000000    65.41000000    -2.94000000
   O     66.50000000    65.81000000    -3.71000000
   H     62.94000000    64.79000000    -2.19000000
   H     64.78000000    67.07000000    -1.96000000
   H     63.90000000    66.53000000    -3.47000000
   N     65.72000000    64.21000000    -2.37000000
   C     66.99000000    63.55000000    -2.16000000
   C     66.86000000    62.03000000    -2.20000000
   O     65.75000000    61.51000000    -2.15000000
   C     67.57000000    64.08000000    -0.85000000
   C     67.79000000    65.56000000    -0.65000000
   C     66.95000000    66.29000000     0.20000000
   C     68.80000000    66.23000000    -1.35000000
   C     67.11000000    67.66000000     0.45000000
   C     68.98000000    67.60000000    -1.16000000
   C     68.10000000    68.31000000    -0.32000000
   O     68.26000000    69.66000000    -0.18000000
   H     64.91000000    63.71000000    -2.01000000
   H     67.68000000    63.94000000    -2.92000000
   H     68.48000000    63.55000000    -0.56000000
   H     66.91000000    63.73000000    -0.06000000
   H     66.11000000    65.82000000     0.69000000
   H     69.51000000    65.65000000    -1.92000000
   H     66.52000000    68.24000000     1.13000000
   H     69.74000000    68.16000000    -1.68000000
   H     68.68000000    70.07000000    -0.94000000
   N     68.00000000    61.35000000    -2.30000000
   C     68.15000000    59.92000000    -2.17000000
   C     69.11000000    59.60000000    -1.03000000
   O     70.27000000    60.00000000    -1.04000000
   C     68.50000000    59.34000000    -3.53000000
   C     67.68000000    59.71000000    -4.76000000
   C     68.54000000    57.81000000    -3.49000000
   C     68.29000000    59.42000000    -6.13000000
   H     68.84000000    61.91000000    -2.25000000
   H     67.12000000    59.60000000    -1.99000000
   H     69.52000000    59.63000000    -3.79000000
   H     67.52000000    60.79000000    -4.81000000
   H     66.69000000    59.27000000    -4.69000000
   H     67.54000000    57.41000000    -3.31000000
   H     69.10000000    57.42000000    -4.34000000
   H     69.10000000    57.50000000    -2.62000000
   H     67.73000000    59.78000000    -6.99000000
   H     69.30000000    59.85000000    -6.15000000
   H     68.45000000    58.35000000    -6.23000000
   N     68.73000000    58.70000000    -0.12000000
   C     69.51000000    58.09000000     0.94000000
   C     70.22000000    56.84000000     0.45000000
   O     69.96000000    56.34000000    -0.64000000
   C     68.64000000    57.83000000     2.17000000
   O     67.61000000    56.88000000     2.02000000
   H     67.81000000    58.29000000    -0.18000000
   H     70.18000000    58.85000000     1.34000000
   H     68.07000000    58.75000000     2.32000000
   H     69.26000000    57.77000000     3.06000000
   H     67.10000000    57.12000000     2.80000000
   N     71.17000000    56.34000000     1.24000000
   C     71.86000000    55.08000000     0.98000000
   C     70.96000000    53.86000000     1.12000000
   O     71.20000000    52.81000000     0.53000000
   C     73.01000000    55.02000000     1.98000000
   H     71.47000000    56.84000000     2.06000000
   H     72.29000000    55.01000000    -0.01000000
   H     72.65000000    55.05000000     3.01000000
   H     73.63000000    54.13000000     1.87000000
   H     73.66000000    55.89000000     1.89000000
   N     69.94000000    53.94000000     1.98000000
   C     69.01000000    52.84000000     2.11000000
   C     68.06000000    52.86000000     0.92000000
   O     68.01000000    51.83000000     0.26000000
   C     68.33000000    52.90000000     3.48000000
   H     69.79000000    54.75000000     2.56000000
   H     69.58000000    51.91000000     2.05000000
   H     67.92000000    53.89000000     3.68000000
   H     67.57000000    52.12000000     3.43000000
   H     69.11000000    52.64000000     4.19000000
   N     67.61000000    54.01000000     0.42000000
   C     66.85000000    54.23000000    -0.80000000
   C     67.59000000    53.84000000    -2.08000000
   O     67.01000000    53.27000000    -3.00000000
   C     66.56000000    55.72000000    -0.90000000
   C     65.24000000    56.09000000    -0.22000000
   C     64.99000000    57.58000000    -0.34000000
   O     65.86000000    58.46000000    -0.18000000
   O     63.82000000    58.03000000    -0.42000000
   H     68.03000000    54.79000000     0.90000000
   H     65.95000000    53.62000000    -0.74000000
   H     66.46000000    56.00000000    -1.94000000
   H     67.39000000    56.30000000    -0.51000000
   H     65.24000000    55.89000000     0.85000000
   H     64.47000000    55.43000000    -0.63000000
   N     68.88000000    54.15000000    -2.21000000
   C     69.77000000    53.85000000    -3.31000000
   H     70.73100000    53.51700000    -2.91800000
   H     69.33600000    53.06100000    -3.92500000
   H     69.91500000    54.74500000    -3.91500000
   H     69.31000000    54.65000000    -1.45000000
  Ca     64.52000000    60.53000000     0.06000000
   O     66.73000000    61.44000000     1.49000000
   H     67.63000000    61.72000000     1.61000000
   H     66.57000000    60.82000000     2.20000000
   O     64.67000000    59.94000000     2.66000000
   H     65.04000000    59.51000000     3.44000000
   H     63.76000000    60.12000000     2.90000000

Ca 1.00



