%chk=loop1.holoCaM.run36.water2.chk
%nprocshared=20
%mem=10GB
%nosave
#b3lyp/svp scf=(tight,noincore,xqc) Test 
#IOP(5/87=12) Density=Current Pop=(MK,readradii) iop(6/33=2) iop(6/42=6)

loop1.holoCaM.run36.water2 

   0  1 
   C     69.48000000    84.95000000   116.69500000
   C     69.24000000    84.40000000   118.09500000
   O     68.07000000    84.30000000   118.46500000
   H     70.52600000    84.80800000   116.42400000
   H     68.84600000    84.42200000   115.98300000
   H     69.24200000    86.01300000   116.67600000
   N     70.27000000    84.09000000   118.88500000
   C     70.19000000    83.91000000   120.31500000
   C     69.89000000    85.27000000   120.92500000
   O     70.76000000    86.12000000   121.10500000
   C     71.49000000    83.20000000   120.67500000
   C     71.58000000    82.85000000   122.15500000
   O     72.67000000    82.43000000   122.60500000
   O     70.52000000    82.95000000   122.80500000
   H     71.17000000    84.33000000   118.50500000
   H     69.33000000    83.28000000   120.56500000
   H     72.40000000    83.76000000   120.46500000
   H     71.60000000    82.33000000   120.03500000
   N     68.65000000    85.44000000   121.40500000
   C     68.17000000    86.74000000   121.79500000
   C     68.66000000    87.19000000   123.16500000
   O     68.82000000    88.39000000   123.32500000
   C     66.64000000    86.83000000   121.80500000
   C     66.03000000    86.90000000   120.41500000
   C     64.52000000    87.03000000   120.29500000
   C     63.78000000    87.98000000   121.23500000
   N     62.33000000    87.97000000   120.94500000
   H     68.09000000    84.64000000   121.66500000
   H     68.67000000    87.45000000   121.14500000
   H     66.28000000    87.78000000   122.19500000
   H     66.22000000    86.04000000   122.43500000
   H     66.33000000    85.94000000   119.98500000
   H     66.39000000    87.79000000   119.89500000
   H     64.10000000    86.08000000   120.62500000
   H     64.36000000    87.11000000   119.21500000
   H     64.14000000    89.00000000   121.12500000
   H     63.91000000    87.62000000   122.25500000
   H     62.04000000    88.66000000   120.26500000
   H     62.18000000    87.07000000   120.49500000
   H     61.86000000    88.05000000   121.82500000
   N     68.88000000    86.23000000   124.07500000
   C     69.48000000    86.40000000   125.38500000
   C     70.83000000    85.73000000   125.61500000
   O     71.38000000    85.98000000   126.68500000
   C     68.54000000    85.77000000   126.41500000
   C     68.24000000    84.30000000   126.16500000
   O     67.65000000    83.73000000   127.11500000
   O     68.56000000    83.68000000   125.13500000
   H     68.61000000    85.28000000   123.87500000
   H     69.63000000    87.47000000   125.53500000
   H     67.55000000    86.17000000   126.19500000
   H     68.93000000    86.11000000   127.37500000
   N     71.43000000    85.00000000   124.67500000
   C     72.87000000    84.87000000   124.68500000
   C     73.45000000    83.83000000   125.63500000
   O     74.47000000    83.96000000   126.31500000
   H     70.88000000    84.63000000   123.91500000
   H     73.36000000    85.80000000   124.98500000
   H     73.25000000    84.68000000   123.68500000
   N     72.76000000    82.69000000   125.64500000
   C     73.12000000    81.52000000   126.42500000
   C     74.01000000    80.60000000   125.60500000
   O     74.76000000    79.76000000   126.10500000
   C     71.89000000    80.73000000   126.87500000
   C     70.73000000    80.57000000   125.90500000
   O     69.56000000    80.80000000   126.27500000
   O     71.09000000    80.30000000   124.73500000
   H     71.90000000    82.72000000   125.12500000
   H     73.64000000    81.74000000   127.35500000
   H     71.49000000    81.37000000   127.66500000
   H     72.19000000    79.73000000   127.17500000
   N     74.09000000    80.76000000   124.28500000
   C     74.83000000    79.96000000   123.32500000
   C     73.94000000    78.90000000   122.68500000
   O     74.43000000    77.96000000   122.05500000
   H     73.54000000    81.52000000   123.92500000
   H     75.55000000    79.36000000   123.86500000
   H     75.37000000    80.55000000   122.58500000
   N     72.61000000    79.01000000   122.66500000
   C     71.68000000    78.09000000   122.04500000
   C     70.48000000    78.84000000   121.48500000
   O     69.86000000    79.62000000   122.20500000
   C     71.14000000    77.09000000   123.06500000
   C     72.14000000    75.97000000   123.32500000
   O     70.78000000    77.73000000   124.27500000
   H     72.25000000    79.85000000   123.09500000
   H     72.26000000    77.47000000   121.36500000
   H     70.32000000    76.53000000   122.62500000
   H     70.77000000    78.65000000   123.98500000
   H     71.69000000    75.27000000   124.02500000
   H     72.41000000    75.50000000   122.37500000
   H     73.08000000    76.37000000   123.70500000
   N     69.97000000    78.43000000   120.32500000
   C     68.67000000    78.80000000   119.78500000
   C     67.65000000    77.73000000   120.15500000
   O     67.84000000    76.56000000   119.81500000
   C     68.71000000    79.03000000   118.27500000
   C     69.57000000    80.24000000   117.90500000
   C     67.36000000    79.16000000   117.58500000
   C     69.94000000    80.31000000   116.42500000
   H     70.52000000    77.84000000   119.71500000
   H     68.33000000    79.74000000   120.20500000
   H     69.16000000    78.13000000   117.88500000
   H     70.52000000    80.20000000   118.43500000
   H     68.98000000    81.10000000   118.17500000
   H     67.58000000    79.05000000   116.52500000
   H     66.64000000    78.42000000   117.92500000
   H     66.96000000    80.13000000   117.87500000
   H     70.48000000    79.38000000   116.23500000
   H     69.10000000    80.49000000   115.75500000
   H     70.52000000    81.23000000   116.36500000
   N     66.58000000    78.14000000   120.83500000
   C     65.39000000    77.34000000   121.06500000
   C     64.25000000    77.77000000   120.15500000
   O     64.40000000    78.67000000   119.32500000
   C     65.11000000    77.46000000   122.55500000
   C     64.46000000    78.77000000   122.98500000
   O     64.13000000    76.52000000   122.92500000
   H     66.63000000    79.07000000   121.22500000
   H     65.59000000    76.28000000   120.90500000
   H     66.07000000    77.41000000   123.07500000
   H     64.07000000    76.53000000   123.87500000
   H     65.06000000    79.55000000   122.50500000
   H     63.40000000    78.78000000   122.73500000
   H     64.53000000    78.71000000   124.06500000
   N     63.07000000    77.15000000   120.24500000
   C     61.99000000    77.30000000   119.29500000
   C     61.53000000    78.74000000   119.11500000
   O     61.26000000    79.12000000   117.97500000
   C     60.80000000    76.38000000   119.50500000
   C     61.16000000    74.93000000   119.20500000
   O     60.35000000    76.58000000   120.82500000
   H     62.89000000    76.55000000   121.03500000
   H     62.42000000    77.14000000   118.30500000
   H     59.99000000    76.67000000   118.83500000
   H     59.52000000    76.18000000   121.08500000
   H     62.12000000    74.70000000   119.66500000
   H     60.44000000    74.25000000   119.65500000
   H     61.23000000    74.77000000   118.12500000
   N     61.50000000    79.48000000   120.22500000
   C     61.02000000    80.85000000   120.20500000
   C     61.99000000    81.82000000   119.53500000
   O     61.69000000    82.98000000   119.25500000
   C     60.64000000    81.42000000   121.56500000
   C     59.78000000    80.56000000   122.47500000
   C     58.35000000    80.22000000   122.06500000
   C     57.76000000    79.50000000   123.27500000
   N     56.36000000    79.21000000   122.93500000
   H     61.74000000    79.05000000   121.09500000
   H     60.12000000    80.86000000   119.58500000
   H     60.02000000    82.31000000   121.47500000
   H     61.57000000    81.70000000   122.07500000
   H     59.80000000    81.09000000   123.43500000
   H     60.31000000    79.63000000   122.65500000
   H     58.38000000    79.57000000   121.18500000
   H     57.77000000    81.11000000   121.81500000
   H     57.83000000    80.23000000   124.07500000
   H     58.35000000    78.60000000   123.49500000
   H     56.23000000    78.75000000   122.04500000
   H     55.92000000    78.59000000   123.59500000
   H     55.74000000    80.01000000   122.84500000
   N     63.19000000    81.41000000   119.11500000
   C     64.27000000    82.22000000   118.60500000
   C     64.51000000    81.91000000   117.13500000
   O     64.98000000    82.73000000   116.35500000
   C     65.49000000    81.89000000   119.46500000
   C     65.43000000    82.62000000   120.80500000
   C     66.63000000    82.29000000   121.67500000
   O     67.07000000    81.13000000   121.86500000
   O     67.25000000    83.16000000   122.32500000
   H     63.41000000    80.46000000   119.37500000
   H     64.10000000    83.30000000   118.52500000
   H     66.42000000    82.25000000   119.02500000
   H     65.62000000    80.81000000   119.54500000
   H     64.60000000    82.32000000   121.44500000
   H     65.40000000    83.69000000   120.60500000
   N     64.24000000    80.65000000   116.76500000
   C     64.54000000    80.11000000   115.45500000
   H     65.57500000    79.76900000   115.43200000
   H     63.87700000    79.27100000   115.24700000
   H     64.39600000    80.88400000   114.70100000
   H     64.06000000    80.00000000   117.51500000
  Ca     68.63000000    81.44000000   123.86500000
   O     68.07000000    78.82000000   124.23500000
   H     67.36000000    78.45000000   124.75500000
   H     68.85000000    78.33000000   124.49500000
   O     66.67000000    81.55000000   125.54500000
   H     66.96000000    82.35000000   125.98500000
   H     66.07000000    81.14000000   126.17500000

Ca 1.00



