%chk=loop3.holoCaM-CaMKII.run34.water2.chk
%nprocshared=20
%mem=10GB
%nosave
#b3lyp/svp scf=(tight,noincore,xqc) Test 
#IOP(5/87=12) Density=Current Pop=(MK,readradii) iop(6/33=2) iop(6/42=6)

loop3.holoCaM-CaMKII.run34.water2 

   0  1 
   C     89.11000000    40.57000000    31.25000000
   C     89.59000000    39.68000000    32.39000000
   O     90.52000000    38.93000000    32.12000000
   H     88.22400000    41.12000000    31.56700000
   H     89.89700000    41.27400000    30.98200000
   H     88.86400000    39.95300000    30.38600000
   N     89.00000000    39.63000000    33.59000000
   C     89.08000000    38.51000000    34.51000000
   C     88.05000000    37.51000000    34.01000000
   O     86.87000000    37.84000000    33.92000000
   C     88.89000000    39.10000000    35.91000000
   C     89.02000000    38.31000000    37.20000000
   O     89.31000000    37.10000000    37.07000000
   O     88.75000000    38.81000000    38.32000000
   H     88.27000000    40.30000000    33.81000000
   H     90.05000000    38.01000000    34.59000000
   H     87.94000000    39.64000000    35.96000000
   H     89.64000000    39.85000000    36.13000000
   N     88.48000000    36.29000000    33.67000000
   C     87.55000000    35.31000000    33.16000000
   C     86.94000000    34.50000000    34.30000000
   O     85.72000000    34.36000000    34.30000000
   C     88.24000000    34.39000000    32.16000000
   C     87.22000000    33.42000000    31.57000000
   C     87.70000000    32.87000000    30.23000000
   C     86.85000000    31.77000000    29.61000000
   N     85.50000000    32.24000000    29.28000000
   H     89.40000000    36.00000000    33.96000000
   H     86.70000000    35.77000000    32.65000000
   H     89.09000000    33.86000000    32.59000000
   H     88.61000000    35.02000000    31.35000000
   H     86.30000000    33.98000000    31.38000000
   H     87.14000000    32.56000000    32.24000000
   H     88.73000000    32.52000000    30.31000000
   H     87.82000000    33.71000000    29.54000000
   H     86.79000000    31.04000000    30.42000000
   H     87.35000000    31.30000000    28.76000000
   H     84.93000000    32.46000000    30.09000000
   H     85.51000000    32.96000000    28.57000000
   H     84.88000000    31.58000000    28.83000000
   N     87.67000000    34.05000000    35.32000000
   C     87.12000000    33.35000000    36.46000000
   C     86.61000000    34.19000000    37.62000000
   O     85.82000000    33.74000000    38.46000000
   C     88.10000000    32.28000000    36.92000000
   C     89.38000000    32.88000000    37.49000000
   O     89.58000000    34.11000000    37.55000000
   O     90.23000000    32.06000000    37.89000000
   H     88.66000000    34.27000000    35.32000000
   H     86.25000000    32.85000000    36.03000000
   H     88.38000000    31.64000000    36.08000000
   H     87.73000000    31.76000000    37.80000000
   N     86.94000000    35.48000000    37.57000000
   C     86.22000000    36.49000000    38.32000000
   C     86.77000000    36.79000000    39.71000000
   O     86.02000000    37.22000000    40.58000000
   H     87.74000000    35.74000000    37.01000000
   H     85.16000000    36.24000000    38.40000000
   H     86.37000000    37.49000000    37.89000000
   N     88.02000000    36.47000000    40.05000000
   C     88.49000000    36.44000000    41.42000000
   C     88.91000000    37.81000000    41.93000000
   O     89.14000000    37.96000000    43.13000000
   C     89.55000000    35.38000000    41.72000000
   C     90.89000000    35.69000000    41.06000000
   N     92.05000000    35.55000000    41.71000000
   O     90.91000000    35.90000000    39.85000000
   H     88.69000000    36.13000000    39.37000000
   H     87.63000000    36.06000000    41.97000000
   H     89.28000000    34.39000000    41.36000000
   H     89.68000000    35.29000000    42.80000000
   H     91.93000000    35.06000000    42.59000000
   H     92.93000000    35.52000000    41.23000000
   N     89.04000000    38.81000000    41.06000000
   C     89.49000000    40.15000000    41.37000000
   C     90.77000000    40.61000000    40.68000000
   O     91.17000000    41.76000000    40.81000000
   H     88.98000000    38.58000000    40.07000000
   H     89.78000000    40.14000000    42.42000000
   H     88.68000000    40.85000000    41.18000000
   N     91.35000000    39.79000000    39.80000000
   C     92.62000000    39.91000000    39.10000000
   C     92.69000000    39.30000000    37.71000000
   O     92.26000000    38.19000000    37.42000000
   C     93.79000000    39.33000000    39.89000000
   C     93.94000000    39.66000000    41.35000000
   C     94.27000000    40.99000000    41.63000000
   C     94.01000000    38.69000000    42.36000000
   C     94.60000000    41.35000000    42.94000000
   C     94.42000000    39.03000000    43.66000000
   C     94.62000000    40.39000000    43.97000000
   O     94.91000000    40.80000000    45.24000000
   H     90.81000000    38.96000000    39.58000000
   H     92.87000000    40.96000000    38.93000000
   H     94.71000000    39.63000000    39.39000000
   H     93.67000000    38.25000000    39.83000000
   H     94.24000000    41.64000000    40.76000000
   H     93.83000000    37.65000000    42.16000000
   H     94.67000000    42.39000000    43.22000000
   H     94.53000000    38.34000000    44.49000000
   H     94.87000000    40.05000000    45.83000000
   N     93.25000000    40.12000000    36.81000000
   C     93.66000000    39.68000000    35.49000000
   C     95.05000000    39.07000000    35.51000000
   O     96.00000000    39.60000000    36.07000000
   C     93.69000000    40.86000000    34.52000000
   C     92.41000000    41.69000000    34.49000000
   C     94.03000000    40.41000000    33.10000000
   C     92.56000000    43.03000000    33.79000000
   H     93.35000000    41.07000000    37.13000000
   H     92.91000000    39.01000000    35.07000000
   H     94.44000000    41.58000000    34.84000000
   H     92.13000000    41.91000000    35.52000000
   H     91.62000000    41.13000000    33.98000000
   H     95.01000000    39.94000000    33.13000000
   H     93.22000000    39.80000000    32.71000000
   H     94.08000000    41.21000000    32.36000000
   H     91.61000000    43.57000000    33.78000000
   H     93.36000000    43.61000000    34.25000000
   H     92.84000000    42.80000000    32.76000000
   N     95.20000000    37.88000000    34.93000000
   C     96.45000000    37.19000000    34.67000000
   C     96.90000000    37.29000000    33.22000000
   O     96.09000000    37.63000000    32.36000000
   C     96.33000000    35.70000000    34.95000000
   O     95.23000000    35.15000000    34.25000000
   H     94.35000000    37.49000000    34.55000000
   H     97.25000000    37.60000000    35.30000000
   H     96.15000000    35.43000000    35.99000000
   H     97.24000000    35.22000000    34.59000000
   H     94.41000000    35.53000000    34.57000000
   N     98.17000000    37.04000000    32.93000000
   C     98.77000000    37.20000000    31.61000000
   C     98.08000000    36.30000000    30.60000000
   O     97.79000000    36.69000000    29.47000000
   C    100.26000000    36.90000000    31.62000000
   H     98.85000000    36.78000000    33.63000000
   H     98.69000000    38.23000000    31.27000000
   H    100.77000000    37.17000000    30.70000000
   H    100.75000000    37.35000000    32.49000000
   H    100.44000000    35.85000000    31.83000000
   N     97.66000000    35.11000000    31.04000000
   C     97.00000000    34.10000000    30.23000000
   C     95.57000000    34.54000000    29.97000000
   O     95.17000000    34.31000000    28.83000000
   C     97.03000000    32.82000000    31.05000000
   H     97.99000000    34.84000000    31.96000000
   H     97.47000000    33.98000000    29.25000000
   H     98.05000000    32.43000000    31.07000000
   H     96.65000000    32.95000000    32.06000000
   H     96.39000000    32.12000000    30.51000000
   N     94.88000000    35.23000000    30.88000000
   C     93.53000000    35.74000000    30.73000000
   C     93.55000000    36.86000000    29.70000000
   O     92.74000000    36.88000000    28.77000000
   C     93.06000000    36.28000000    32.07000000
   C     92.31000000    35.23000000    32.89000000
   C     92.01000000    35.59000000    34.33000000
   O     90.92000000    35.35000000    34.90000000
   O     92.89000000    36.11000000    35.05000000
   H     95.31000000    35.52000000    31.75000000
   H     92.84000000    34.94000000    30.45000000
   H     92.33000000    37.08000000    31.95000000
   H     93.94000000    36.60000000    32.63000000
   H     92.79000000    34.25000000    32.84000000
   H     91.32000000    35.18000000    32.44000000
   N     94.61000000    37.66000000    29.79000000
   C     94.69000000    38.81000000    28.91000000
   H     95.73600000    39.05200000    28.72300000
   H     94.19600000    38.58100000    27.96600000
   H     94.19900000    39.66200000    29.38000000
   H     95.24000000    37.60000000    30.58000000
  Ca     91.42000000    35.68000000    37.32000000
   O     93.74000000    35.80000000    38.65000000
   H     94.58000000    36.24000000    38.48000000
   H     93.97000000    35.11000000    39.27000000
   O     93.01000000    33.60000000    37.22000000
   H     93.45000000    33.37000000    36.40000000
   H     92.70000000    32.76000000    37.57000000

Ca 1.00



