%chk=loop1.apoCaM-CA-Ng.Init31.run7.water7.chk
%nprocshared=20
%mem=10GB
%nosave
#b3lyp/svp scf=(tight,noincore,xqc) Test 
#IOP(5/87=12) Density=Current Pop=(MK,readradii) iop(6/33=2) iop(6/42=6)

loop1.apoCaM-CA-Ng.Init31.run7.water7 

   0  1 
   C     45.11000000    73.04000000    11.25000000
   C     43.81000000    72.27000000    11.09000000
   O     43.03000000    72.38000000    10.15000000
   H     45.87400000    72.59800000    10.61100000
   H     44.95500000    74.08000000    10.96300000
   H     45.43500000    72.99400000    12.28900000
   N     43.55000000    71.43000000    12.10000000
   C     42.40000000    70.57000000    12.29000000
   C     41.10000000    71.30000000    12.59000000
   O     41.17000000    72.33000000    13.26000000
   C     42.65000000    69.62000000    13.46000000
   C     41.57000000    68.58000000    13.72000000
   O     41.19000000    68.40000000    14.89000000
   O     41.25000000    67.91000000    12.71000000
   H     44.21000000    71.41000000    12.87000000
   H     42.33000000    69.91000000    11.42000000
   H     42.89000000    70.09000000    14.41000000
   H     43.51000000    68.96000000    13.28000000
   N     39.99000000    70.84000000    12.01000000
   C     38.69000000    71.48000000    11.99000000
   C     37.42000000    70.82000000    12.51000000
   O     36.56000000    71.61000000    12.87000000
   C     38.47000000    71.79000000    10.51000000
   C     39.45000000    72.77000000     9.87000000
   C     39.20000000    72.87000000     8.36000000
   C     39.69000000    71.72000000     7.49000000
   N     39.00000000    71.64000000     6.19000000
   H     40.08000000    69.91000000    11.62000000
   H     38.75000000    72.50000000    12.36000000
   H     37.45000000    72.16000000    10.44000000
   H     38.51000000    70.86000000     9.95000000
   H     40.47000000    72.41000000     9.98000000
   H     39.44000000    73.76000000    10.33000000
   H     39.68000000    73.73000000     7.91000000
   H     38.12000000    72.90000000     8.19000000
   H     39.70000000    70.77000000     8.02000000
   H     40.76000000    71.96000000     7.44000000
   H     38.26000000    70.95000000     6.13000000
   H     38.66000000    72.52000000     5.83000000
   H     39.64000000    71.22000000     5.54000000
   N     37.23000000    69.50000000    12.62000000
   C     37.97000000    68.33000000    12.19000000
   C     37.87000000    67.28000000    13.29000000
   O     37.01000000    67.17000000    14.15000000
   C     37.30000000    67.90000000    10.89000000
   C     37.90000000    66.64000000    10.30000000
   O     38.82000000    66.70000000     9.45000000
   O     37.36000000    65.57000000    10.65000000
   H     36.34000000    69.25000000    13.02000000
   H     39.04000000    68.42000000    12.02000000
   H     37.42000000    68.73000000    10.19000000
   H     36.25000000    67.69000000    11.13000000
   N     38.90000000    66.44000000    13.34000000
   C     39.12000000    65.30000000    14.21000000
   C     40.23000000    64.34000000    13.83000000
   O     39.99000000    63.13000000    13.79000000
   H     39.75000000    66.77000000    12.90000000
   H     38.16000000    64.78000000    14.33000000
   H     39.33000000    65.74000000    15.18000000
   N     41.38000000    64.85000000    13.38000000
   C     42.51000000    64.11000000    12.85000000
   C     43.17000000    63.06000000    13.74000000
   O     42.66000000    62.56000000    14.74000000
   C     42.14000000    63.56000000    11.48000000
   C     41.54000000    64.53000000    10.46000000
   O     42.22000000    65.50000000    10.07000000
   O     40.38000000    64.35000000    10.04000000
   H     41.40000000    65.86000000    13.39000000
   H     43.28000000    64.87000000    12.74000000
   H     41.50000000    62.68000000    11.54000000
   H     43.07000000    63.19000000    11.05000000
   N     44.37000000    62.57000000    13.45000000
   C     45.39000000    63.14000000    12.60000000
   C     45.71000000    62.37000000    11.32000000
   O     46.40000000    62.86000000    10.44000000
   H     44.58000000    61.76000000    14.01000000
   H     46.31000000    63.20000000    13.19000000
   H     45.15000000    64.15000000    12.26000000
   N     45.12000000    61.17000000    11.21000000
   C     45.38000000    60.32000000    10.07000000
   C     46.81000000    59.80000000    10.00000000
   O     47.58000000    60.02000000     9.06000000
   C     44.87000000    60.88000000     8.75000000
   C     43.61000000    61.74000000     8.79000000
   O     44.60000000    59.92000000     7.75000000
   H     44.58000000    60.82000000    11.99000000
   H     44.71000000    59.50000000    10.33000000
   H     45.64000000    61.54000000     8.37000000
   H     45.48000000    59.76000000     7.40000000
   H     42.89000000    61.49000000     9.56000000
   H     43.92000000    62.76000000     9.03000000
   H     43.08000000    61.86000000     7.84000000
   N     47.22000000    59.37000000    11.19000000
   C     48.52000000    58.83000000    11.55000000
   C     48.87000000    57.57000000    10.78000000
   O     49.22000000    56.56000000    11.40000000
   C     49.65000000    59.85000000    11.45000000
   C     49.36000000    61.20000000    12.12000000
   C     50.95000000    59.31000000    12.03000000
   C     49.08000000    61.13000000    13.62000000
   H     46.53000000    59.40000000    11.93000000
   H     48.53000000    58.56000000    12.60000000
   H     49.86000000    60.09000000    10.41000000
   H     48.50000000    61.67000000    11.65000000
   H     50.21000000    61.85000000    11.93000000
   H     51.36000000    58.58000000    11.34000000
   H     51.64000000    60.16000000    12.09000000
   H     50.77000000    58.82000000    12.99000000
   H     49.05000000    62.20000000    13.86000000
   H     48.13000000    60.62000000    13.81000000
   H     49.91000000    60.61000000    14.09000000
   N     48.93000000    57.64000000     9.45000000
   C     49.03000000    56.53000000     8.52000000
   C     50.00000000    56.81000000     7.38000000
   O     49.98000000    57.88000000     6.79000000
   C     47.68000000    56.07000000     7.97000000
   C     46.85000000    57.27000000     7.53000000
   O     47.06000000    55.33000000     8.99000000
   H     48.55000000    58.49000000     9.05000000
   H     49.40000000    55.71000000     9.14000000
   H     47.92000000    55.43000000     7.12000000
   H     47.35000000    54.41000000     9.03000000
   H     47.54000000    57.92000000     6.98000000
   H     46.01000000    56.90000000     6.94000000
   H     46.63000000    57.84000000     8.43000000
   N     50.78000000    55.79000000     7.01000000
   C     51.66000000    55.87000000     5.86000000
   C     51.01000000    56.39000000     4.58000000
   O     49.88000000    55.98000000     4.30000000
   C     52.45000000    54.56000000     5.81000000
   C     51.73000000    53.27000000     5.43000000
   O     53.60000000    54.82000000     5.03000000
   H     50.81000000    54.95000000     7.56000000
   H     52.39000000    56.62000000     6.17000000
   H     52.90000000    54.46000000     6.80000000
   H     54.07000000    55.57000000     5.41000000
   H     51.28000000    53.45000000     4.46000000
   H     52.43000000    52.44000000     5.50000000
   H     50.98000000    53.02000000     6.18000000
   N     51.60000000    57.16000000     3.67000000
   C     50.94000000    57.80000000     2.55000000
   C     49.76000000    58.72000000     2.81000000
   O     49.00000000    59.00000000     1.88000000
   C     50.68000000    56.84000000     1.39000000
   C     51.88000000    55.95000000     1.09000000
   C     51.48000000    54.94000000     0.02000000
   C     52.59000000    54.27000000    -0.79000000
   N     53.32000000    53.29000000     0.04000000
   H     52.52000000    57.55000000     3.85000000
   H     51.57000000    58.60000000     2.17000000
   H     50.25000000    57.34000000     0.52000000
   H     49.83000000    56.22000000     1.66000000
   H     52.20000000    55.35000000     1.93000000
   H     52.72000000    56.49000000     0.65000000
   H     50.83000000    55.33000000    -0.77000000
   H     50.86000000    54.16000000     0.44000000
   H     53.25000000    55.05000000    -1.18000000
   H     52.13000000    53.69000000    -1.58000000
   H     54.15000000    52.98000000    -0.45000000
   H     53.65000000    53.70000000     0.89000000
   H     52.71000000    52.51000000     0.24000000
   N     49.57000000    59.33000000     3.98000000
   C     48.42000000    60.17000000     4.25000000
   C     48.15000000    60.46000000     5.72000000
   O     46.96000000    60.44000000     6.02000000
   C     48.57000000    61.46000000     3.45000000
   C     47.40000000    62.43000000     3.46000000
   C     47.60000000    63.62000000     2.54000000
   O     48.06000000    64.69000000     3.00000000
   O     47.36000000    63.54000000     1.31000000
   H     50.24000000    59.07000000     4.68000000
   H     47.49000000    59.69000000     3.93000000
   H     48.60000000    61.15000000     2.40000000
   H     49.50000000    61.97000000     3.68000000
   H     47.25000000    62.78000000     4.49000000
   H     46.46000000    61.95000000     3.19000000
   N     49.05000000    60.84000000     6.64000000
   C     50.45000000    61.16000000     6.48000000
   H     51.03500000    60.24000000     6.48200000
   H     50.59800000    61.68200000     5.53500000
   H     50.77400000    61.79800000     7.30200000
   H     48.71000000    60.85000000     7.59000000
  Ca     38.21000000    64.22000000     8.61000000
   O     35.73000000    63.69000000     8.89000000
   H     35.34000000    63.22000000     8.15000000
   H     35.18000000    64.45000000     9.01000000
   O     41.01000000    65.63000000     7.65000000
   H     41.26000000    65.33000000     8.52000000
   H     40.64000000    66.50000000     7.79000000
   O     37.38000000    61.46000000     7.91000000
   H     36.59000000    61.24000000     7.43000000
   H     37.81000000    60.62000000     8.08000000
   O     40.57000000    62.74000000     7.84000000
   H     40.88000000    62.83000000     8.74000000
   H     40.70000000    61.82000000     7.63000000
   O     37.10000000    66.25000000     7.03000000
   H     36.25000000    66.45000000     7.42000000
   H     37.31000000    67.02000000     6.49000000
   O     38.53000000    62.10000000    10.30000000
   H     38.34000000    61.16000000    10.30000000
   H     38.53000000    62.34000000    11.22000000
   O     38.60000000    63.57000000     5.92000000
   H     37.96000000    63.83000000     5.25000000
   H     39.02000000    62.79000000     5.55000000

Ca 1.00



