%chk=loop4.apoCaM-CA-Ng.Init295.run83.water3.chk
%nprocshared=20
%mem=10GB
%nosave
#b3lyp/svp scf=(tight,noincore,xqc) Test 
#IOP(5/87=12) Density=Current Pop=(MK,readradii) iop(6/33=2) iop(6/42=6)

loop4.apoCaM-CA-Ng.Init295.run83.water3 

   -3  1 
   C     -0.93000000   -31.18000000    58.23000000
   C     -1.56000000   -32.49000000    58.68000000
   O     -2.63000000   -32.53000000    59.28000000
   H      0.05100000   -31.37900000    57.79900000
   H     -1.56700000   -30.70800000    57.48100000
   H     -0.82200000   -30.51500000    59.08700000
   N     -0.92000000   -33.64000000    58.46000000
   C     -1.41000000   -34.96000000    58.79000000
   C     -2.74000000   -35.31000000    58.15000000
   O     -3.50000000   -36.05000000    58.78000000
   C     -1.28000000   -35.21000000    60.29000000
   C     -0.16000000   -34.43000000    60.96000000
   O     -0.36000000   -33.51000000    61.78000000
   O      1.01000000   -34.72000000    60.65000000
   H     -0.02000000   -33.58000000    58.00000000
   H     -0.72000000   -35.64000000    58.27000000
   H     -1.10000000   -36.27000000    60.46000000
   H     -2.28000000   -35.08000000    60.70000000
   N     -3.10000000   -34.80000000    56.97000000
   C     -4.28000000   -35.16000000    56.21000000
   C     -4.47000000   -36.62000000    55.86000000
   O     -3.65000000   -37.24000000    55.19000000
   C     -4.32000000   -34.29000000    54.95000000
   C     -3.98000000   -32.81000000    55.10000000
   C     -5.71000000   -34.45000000    54.34000000
   C     -4.69000000   -32.08000000    56.24000000
   H     -2.51000000   -34.11000000    56.53000000
   H     -5.13000000   -34.82000000    56.80000000
   H     -3.63000000   -34.74000000    54.25000000
   H     -4.12000000   -32.21000000    54.20000000
   H     -2.91000000   -32.70000000    55.31000000
   H     -6.41000000   -33.84000000    54.92000000
   H     -5.78000000   -34.06000000    53.33000000
   H     -5.90000000   -35.51000000    54.17000000
   H     -4.24000000   -31.08000000    56.20000000
   H     -5.74000000   -31.90000000    55.99000000
   H     -4.64000000   -32.54000000    57.22000000
   N     -5.64000000   -37.25000000    56.05000000
   C     -6.77000000   -36.95000000    56.91000000
   C     -7.11000000   -38.06000000    57.89000000
   O     -7.85000000   -37.87000000    58.85000000
   C     -8.02000000   -36.75000000    56.06000000
   C     -8.39000000   -37.82000000    55.04000000
   O     -9.21000000   -37.48000000    54.16000000
   O     -7.84000000   -38.94000000    55.04000000
   H     -5.57000000   -38.20000000    55.72000000
   H     -6.53000000   -36.06000000    57.50000000
   H     -8.09000000   -35.74000000    55.66000000
   H     -8.86000000   -36.83000000    56.75000000
   N     -6.48000000   -39.23000000    57.75000000
   C     -6.34000000   -40.27000000    58.74000000
   C     -7.66000000   -40.95000000    59.10000000
   O     -8.48000000   -41.25000000    58.24000000
   H     -5.97000000   -39.40000000    56.89000000
   H     -5.85000000   -39.95000000    59.66000000
   H     -5.77000000   -41.06000000    58.26000000
   N     -7.84000000   -41.22000000    60.40000000
   C     -9.09000000   -41.56000000    61.06000000
   C     -9.76000000   -40.38000000    61.76000000
   O    -10.73000000   -40.54000000    62.49000000
   C     -8.94000000   -42.83000000    61.89000000
   C     -8.35000000   -43.99000000    61.10000000
   O     -8.95000000   -44.28000000    60.04000000
   O     -7.24000000   -44.48000000    61.37000000
   H     -7.15000000   -40.98000000    61.09000000
   H     -9.82000000   -41.80000000    60.29000000
   H     -9.93000000   -43.07000000    62.27000000
   H     -8.31000000   -42.58000000    62.74000000
   N     -9.27000000   -39.16000000    61.50000000
   C     -9.88000000   -37.98000000    62.06000000
   C     -9.56000000   -37.65000000    63.51000000
   O    -10.32000000   -36.95000000    64.18000000
   H     -8.61000000   -39.05000000    60.74000000
   H    -10.97000000   -38.06000000    62.03000000
   H     -9.54000000   -37.17000000    61.41000000
   N     -8.57000000   -38.26000000    64.17000000
   C     -8.26000000   -38.25000000    65.58000000
   C     -7.90000000   -36.89000000    66.16000000
   O     -8.34000000   -36.55000000    67.26000000
   C     -9.25000000   -39.04000000    66.44000000
   C     -9.79000000   -40.35000000    65.90000000
   C     -8.78000000   -41.46000000    65.63000000
   N     -9.25000000   -42.55000000    65.02000000
   O     -7.57000000   -41.25000000    65.74000000
   H     -7.99000000   -38.93000000    63.68000000
   H     -7.38000000   -38.88000000    65.72000000
   H    -10.12000000   -38.44000000    66.70000000
   H     -8.80000000   -39.21000000    67.42000000
   H    -10.51000000   -40.30000000    65.08000000
   H    -10.42000000   -40.81000000    66.66000000
   H    -10.24000000   -42.71000000    64.97000000
   H     -8.56000000   -43.26000000    64.81000000
   N     -7.22000000   -36.10000000    65.34000000
   C     -6.85000000   -34.72000000    65.60000000
   C     -5.57000000   -34.61000000    66.41000000
   O     -4.64000000   -35.41000000    66.29000000
   C     -6.72000000   -33.91000000    64.31000000
   C     -8.08000000   -33.81000000    63.61000000
   C     -6.47000000   -32.40000000    64.39000000
   H     -6.91000000   -36.61000000    64.52000000
   H     -7.59000000   -34.26000000    66.25000000
   H     -6.05000000   -34.43000000    63.64000000
   H     -8.45000000   -34.80000000    63.37000000
   H     -8.77000000   -33.22000000    64.22000000
   H     -8.01000000   -33.32000000    62.64000000
   H     -6.61000000   -31.86000000    63.46000000
   H     -6.88000000   -31.95000000    65.29000000
   H     -5.39000000   -32.38000000    64.54000000
   N     -5.48000000   -33.60000000    67.28000000
   C     -4.34000000   -33.12000000    68.02000000
   C     -4.19000000   -31.62000000    67.84000000
   O     -5.01000000   -30.91000000    67.26000000
   C     -4.57000000   -33.49000000    69.49000000
   C     -4.22000000   -34.94000000    69.76000000
   N     -2.93000000   -35.22000000    69.55000000
   O     -4.98000000   -35.85000000    70.09000000
   H     -6.29000000   -33.01000000    67.39000000
   H     -3.45000000   -33.60000000    67.62000000
   H     -5.56000000   -33.30000000    69.90000000
   H     -4.05000000   -32.84000000    70.18000000
   H     -2.26000000   -34.55000000    69.20000000
   H     -2.61000000   -36.17000000    69.73000000
   N     -3.07000000   -31.09000000    68.36000000
   C     -2.77000000   -29.68000000    68.42000000
   C     -1.25000000   -29.52000000    68.39000000
   O     -0.68000000   -29.14000000    69.41000000
   C     -3.38000000   -29.08000000    69.68000000
   C     -3.17000000   -27.58000000    69.65000000
   C     -3.91000000   -26.80000000    68.74000000
   C     -2.37000000   -26.90000000    70.57000000
   C     -3.79000000   -25.41000000    68.64000000
   C     -2.27000000   -25.51000000    70.54000000
   C     -3.01000000   -24.74000000    69.61000000
   O     -3.00000000   -23.39000000    69.75000000
   H     -2.40000000   -31.74000000    68.74000000
   H     -3.21000000   -29.13000000    67.59000000
   H     -3.17000000   -29.70000000    70.54000000
   H     -4.44000000   -29.30000000    69.51000000
   H     -4.54000000   -27.33000000    68.04000000
   H     -1.78000000   -27.47000000    71.27000000
   H     -4.30000000   -24.80000000    67.92000000
   H     -1.60000000   -24.99000000    71.21000000
   H     -2.37000000   -23.00000000    70.36000000
   N     -0.65000000   -30.07000000    67.33000000
   C      0.79000000   -30.08000000    67.16000000
   C      1.33000000   -28.78000000    66.59000000
   O      2.30000000   -28.27000000    67.15000000
   C      1.16000000   -31.38000000    66.44000000
   C      2.68000000   -31.37000000    66.26000000
   C      3.19000000   -32.62000000    65.56000000
   O      3.64000000   -33.61000000    66.18000000
   O      3.22000000   -32.58000000    64.31000000
   H     -1.26000000   -30.49000000    66.65000000
   H      1.21000000   -30.20000000    68.16000000
   H      0.57000000   -31.48000000    65.54000000
   H      0.85000000   -32.17000000    67.13000000
   H      3.17000000   -31.25000000    67.22000000
   H      3.01000000   -30.49000000    65.70000000
   N      0.89000000   -28.11000000    65.52000000
   C     -0.12000000   -28.45000000    64.54000000
   C     -1.50000000   -27.92000000    64.92000000
   O     -1.65000000   -27.14000000    65.86000000
   C      0.33000000   -27.95000000    63.17000000
   C      1.76000000   -28.27000000    62.77000000
   C      1.96000000   -29.76000000    62.50000000
   O      1.01000000   -30.56000000    62.68000000
   O      3.06000000   -30.28000000    62.23000000
   H      1.35000000   -27.21000000    65.44000000
   H     -0.17000000   -29.54000000    64.51000000
   H      0.10000000   -26.89000000    63.14000000
   H     -0.34000000   -28.27000000    62.37000000
   H      2.46000000   -27.97000000    63.55000000
   H      1.96000000   -27.60000000    61.93000000
   N     -2.51000000   -28.24000000    64.12000000
   C     -3.74000000   -27.48000000    63.94000000
   H     -4.51600000   -27.88600000    64.58900000
   H     -3.56300000   -26.43500000    64.19600000
   H     -4.06300000   -27.55100000    62.90100000
   H     -2.27000000   -28.96000000    63.46000000
  Ca      2.14000000   -32.80600000    62.01000000
   O      3.55000000   -35.05600000    62.23000000
   H      4.38000000   -35.49600000    62.43000000
   H      2.92000000   -35.77600000    62.12000000
   O      1.32000000   -34.72600000    64.02000000
   H      0.75000000   -35.49600000    64.00000000
   H      2.17000000   -35.06600000    64.29000000
   O      4.09000000   -32.98600000    60.15000000
   H      4.83000000   -32.39600000    60.03000000
   H      4.35000000   -33.78600000    59.70000000

Ca 1.00



