%chk=loop3.apoCaM-CA-Ng.Init293.run45.water3.chk
%nprocshared=20
%mem=10GB
%nosave
#b3lyp/svp scf=(tight,noincore,xqc) Test 
#IOP(5/87=12) Density=Current Pop=(MK,readradii) iop(6/33=2) iop(6/42=6)

loop3.apoCaM-CA-Ng.Init293.run45.water3 

   0  1 
   C     51.76000000    79.75000000   -18.02000000
   C     52.16000000    79.03000000   -19.30000000
   O     53.12000000    78.26000000   -19.27000000
   H     50.73200000    79.49100000   -17.76400000
   H     52.42300000    79.44700000   -17.21000000
   H     51.83700000    80.82700000   -18.16900000
   N     51.44000000    79.26000000   -20.39000000
   C     51.50000000    78.65000000   -21.71000000
   C     50.33000000    77.71000000   -21.89000000
   O     49.22000000    78.04000000   -21.48000000
   C     51.36000000    79.73000000   -22.78000000
   C     51.76000000    79.23000000   -24.16000000
   O     51.55000000    79.94000000   -25.17000000
   O     52.32000000    78.12000000   -24.25000000
   H     50.75000000    80.00000000   -20.35000000
   H     52.45000000    78.17000000   -21.92000000
   H     52.05000000    80.54000000   -22.56000000
   H     50.38000000    80.21000000   -22.79000000
   N     50.57000000    76.58000000   -22.56000000
   C     49.60000000    75.62000000   -23.05000000
   C     48.48000000    76.15000000   -23.94000000
   O     48.07000000    75.41000000   -24.83000000
   C     49.03000000    74.80000000   -21.89000000
   C     50.12000000    73.92000000   -21.29000000
   C     49.98000000    72.54000000   -21.93000000
   C     51.10000000    71.71000000   -21.30000000
   N     51.34000000    70.46000000   -22.04000000
   H     51.51000000    76.50000000   -22.92000000
   H     50.18000000    74.92000000   -23.63000000
   H     48.25000000    74.09000000   -22.19000000
   H     48.58000000    75.49000000   -21.17000000
   H     49.84000000    73.72000000   -20.25000000
   H     51.15000000    74.25000000   -21.39000000
   H     50.15000000    72.68000000   -23.00000000
   H     49.06000000    71.99000000   -21.77000000
   H     50.75000000    71.49000000   -20.29000000
   H     52.03000000    72.25000000   -21.19000000
   H     52.09000000    69.96000000   -21.57000000
   H     50.51000000    69.91000000   -22.19000000
   H     51.72000000    70.69000000   -22.95000000
   N     47.98000000    77.37000000   -23.75000000
   C     46.69000000    77.73000000   -24.30000000
   C     46.61000000    79.23000000   -24.57000000
   O     46.85000000    80.06000000   -23.69000000
   C     45.56000000    77.35000000   -23.34000000
   C     44.21000000    77.60000000   -24.01000000
   O     43.23000000    77.99000000   -23.34000000
   O     44.05000000    77.60000000   -25.24000000
   H     48.40000000    77.92000000   -23.02000000
   H     46.52000000    77.22000000   -25.24000000
   H     45.67000000    77.99000000   -22.46000000
   H     45.61000000    76.31000000   -23.00000000
   N     46.28000000    79.58000000   -25.81000000
   C     45.84000000    80.89000000   -26.22000000
   C     44.37000000    81.25000000   -26.07000000
   O     43.49000000    80.40000000   -26.12000000
   H     46.28000000    78.82000000   -26.48000000
   H     46.07000000    80.93000000   -27.29000000
   H     46.46000000    81.65000000   -25.75000000
   N     44.18000000    82.56000000   -25.90000000
   C     42.86000000    83.16000000   -25.76000000
   C     42.73000000    84.52000000   -26.42000000
   O     41.60000000    84.95000000   -26.63000000
   C     42.41000000    83.35000000   -24.32000000
   C     42.07000000    82.06000000   -23.59000000
   N     42.33000000    82.04000000   -22.28000000
   O     41.56000000    81.08000000   -24.13000000
   H     45.00000000    83.12000000   -25.71000000
   H     42.12000000    82.50000000   -26.22000000
   H     41.55000000    84.02000000   -24.27000000
   H     43.24000000    83.77000000   -23.76000000
   H     42.61000000    82.88000000   -21.79000000
   H     42.28000000    81.22000000   -21.69000000
   N     43.82000000    85.19000000   -26.80000000
   C     43.89000000    86.51000000   -27.39000000
   C     42.80000000    87.41000000   -26.84000000
   O     42.79000000    87.70000000   -25.64000000
   H     44.64000000    84.62000000   -26.62000000
   H     43.82000000    86.37000000   -28.46000000
   H     44.82000000    86.99000000   -27.08000000
   N     41.90000000    87.83000000   -27.73000000
   C     40.86000000    88.80000000   -27.45000000
   C     39.84000000    88.37000000   -26.40000000
   O     39.09000000    89.16000000   -25.84000000
   C     41.40000000    90.20000000   -27.19000000
   C     42.31000000    90.83000000   -28.22000000
   C     43.70000000    90.79000000   -28.02000000
   C     41.75000000    91.43000000   -29.35000000
   C     44.52000000    91.35000000   -29.00000000
   C     42.56000000    92.09000000   -30.28000000
   C     43.96000000    92.01000000   -30.11000000
   O     44.84000000    92.77000000   -30.82000000
   H     42.11000000    87.60000000   -28.69000000
   H     40.31000000    88.96000000   -28.37000000
   H     41.92000000    90.17000000   -26.23000000
   H     40.65000000    90.99000000   -27.10000000
   H     44.09000000    90.33000000   -27.12000000
   H     40.69000000    91.47000000   -29.54000000
   H     45.59000000    91.36000000   -28.85000000
   H     42.26000000    92.44000000   -31.26000000
   H     44.50000000    93.14000000   -31.64000000
   N     39.88000000    87.08000000   -26.05000000
   C     38.96000000    86.54000000   -25.07000000
   C     37.57000000    86.34000000   -25.65000000
   O     37.03000000    85.24000000   -25.60000000
   C     38.88000000    87.20000000   -23.69000000
   C     40.24000000    87.63000000   -23.15000000
   C     38.26000000    86.22000000   -22.70000000
   C     40.13000000    88.15000000   -21.72000000
   H     40.70000000    86.54000000   -26.31000000
   H     39.31000000    85.53000000   -24.87000000
   H     38.19000000    88.03000000   -23.84000000
   H     40.53000000    88.51000000   -23.72000000
   H     41.02000000    86.88000000   -23.28000000
   H     38.79000000    85.29000000   -22.49000000
   H     37.82000000    86.63000000   -21.79000000
   H     37.38000000    85.79000000   -23.17000000
   H     40.16000000    87.28000000   -21.06000000
   H     41.03000000    88.74000000   -21.57000000
   H     39.22000000    88.74000000   -21.69000000
   N     36.90000000    87.40000000   -26.09000000
   C     35.49000000    87.50000000   -26.43000000
   C     34.43000000    87.01000000   -25.45000000
   O     33.34000000    86.58000000   -25.81000000
   C     35.10000000    88.94000000   -26.74000000
   O     35.90000000    89.83000000   -26.00000000
   H     37.26000000    88.32000000   -25.86000000
   H     35.35000000    87.04000000   -27.40000000
   H     34.04000000    89.07000000   -26.50000000
   H     35.22000000    89.14000000   -27.80000000
   H     35.28000000    90.40000000   -25.54000000
   N     34.96000000    87.03000000   -24.22000000
   C     34.38000000    86.55000000   -22.98000000
   C     34.16000000    85.05000000   -22.89000000
   O     33.29000000    84.57000000   -22.17000000
   C     33.13000000    87.35000000   -22.60000000
   H     35.85000000    87.49000000   -24.12000000
   H     35.14000000    86.74000000   -22.22000000
   H     32.30000000    87.08000000   -23.25000000
   H     32.88000000    87.17000000   -21.56000000
   H     33.33000000    88.41000000   -22.80000000
   N     34.96000000    84.30000000   -23.65000000
   C     35.01000000    82.85000000   -23.62000000
   C     36.01000000    82.33000000   -22.60000000
   O     36.94000000    83.06000000   -22.27000000
   C     35.23000000    82.37000000   -25.05000000
   H     35.55000000    84.69000000   -24.38000000
   H     34.01000000    82.57000000   -23.29000000
   H     34.87000000    81.35000000   -25.10000000
   H     34.64000000    82.95000000   -25.76000000
   H     36.29000000    82.41000000   -25.31000000
   N     35.78000000    81.10000000   -22.14000000
   C     36.46000000    80.25000000   -21.18000000
   C     36.74000000    80.83000000   -19.80000000
   O     37.44000000    80.29000000   -18.95000000
   C     37.75000000    79.74000000   -21.83000000
   C     37.62000000    78.86000000   -23.07000000
   C     38.94000000    78.73000000   -23.81000000
   O     38.99000000    79.01000000   -25.03000000
   O     40.04000000    78.47000000   -23.27000000
   H     34.95000000    80.68000000   -22.53000000
   H     35.79000000    79.43000000   -20.94000000
   H     38.46000000    79.32000000   -21.13000000
   H     38.40000000    80.59000000   -22.04000000
   H     36.84000000    79.19000000   -23.75000000
   H     37.31000000    77.83000000   -22.88000000
   N     36.29000000    82.06000000   -19.56000000
   C     36.77000000    83.03000000   -18.60000000
   H     37.66900000    83.51000000   -18.98800000
   H     36.00100000    83.78400000   -18.42900000
   H     37.00300000    82.52800000   -17.66100000
   H     35.57000000    82.38000000   -20.20000000
  Ca     41.62000000    78.62000000   -25.38500000
   O     42.12000000    77.38000000   -27.79500000
   H     41.95000000    77.66000000   -28.69500000
   H     42.95000000    76.91000000   -27.84500000
   O     40.37000000    79.92000000   -27.40500000
   H     39.62000000    79.61000000   -27.92500000
   H     40.25000000    80.86000000   -27.34500000
   O     41.01000000    76.11000000   -25.11500000
   H     41.52000000    75.30000000   -25.18500000
   H     40.18000000    75.84000000   -24.71500000

Ca 1.00



