%chk=loop2.apoCaM-CA-Ng.Init295.run66.water4.chk
%nprocshared=20
%mem=10GB
%nosave
#b3lyp/svp scf=(tight,noincore,xqc) Test 
#IOP(5/87=12) Density=Current Pop=(MK,readradii) iop(6/33=2) iop(6/42=6)

loop2.apoCaM-CA-Ng.Init295.run66.water4 

   -2  1 
   C     91.94000000   100.68000000    28.19000000
   C     92.35000000   101.91000000    28.99000000
   O     91.57000000   102.84000000    29.11000000
   H     91.03900000   100.90300000    27.61900000
   H     92.74400000   100.40600000    27.50700000
   H     91.74300000    99.85200000    28.87100000
   N     93.65000000   102.04000000    29.30000000
   C     94.12000000   103.27000000    29.91000000
   C     93.61000000   103.60000000    31.31000000
   O     93.78000000   104.70000000    31.83000000
   C     95.64000000   103.12000000    30.00000000
   C     96.48000000   104.39000000    29.93000000
   O     97.71000000   104.29000000    30.09000000
   O     95.94000000   105.47000000    29.58000000
   H     94.23000000   101.22000000    29.27000000
   H     93.86000000   104.09000000    29.24000000
   H     96.04000000   102.46000000    29.23000000
   H     95.90000000   102.58000000    30.91000000
   N     93.05000000   102.65000000    32.05000000
   C     92.60000000   102.76000000    33.42000000
   C     92.39000000   101.45000000    34.17000000
   O     92.02000000   100.42000000    33.61000000
   C     91.30000000   103.56000000    33.38000000
   H     92.95000000   101.76000000    31.58000000
   H     93.34000000   103.42000000    33.88000000
   H     91.48000000   104.59000000    33.08000000
   H     90.63000000   103.09000000    32.66000000
   H     90.82000000   103.60000000    34.36000000
   N     92.45000000   101.40000000    35.50000000
   C     92.40000000   102.46000000    36.49000000
   C     93.46000000   102.19000000    37.54000000
   O     93.60000000   101.04000000    37.94000000
   C     91.02000000   102.73000000    37.07000000
   C     90.85000000   104.04000000    37.83000000
   O     91.82000000   104.82000000    37.91000000
   O     89.71000000   104.31000000    38.27000000
   H     92.27000000   100.47000000    35.85000000
   H     92.71000000   103.38000000    36.00000000
   H     90.58000000   101.93000000    37.66000000
   H     90.44000000   102.80000000    36.14000000
   N     94.27000000   103.18000000    37.93000000
   C     95.31000000   102.94000000    38.91000000
   C     96.64000000   102.52000000    38.31000000
   O     96.95000000   102.80000000    37.16000000
   H     94.15000000   104.03000000    37.40000000
   H     95.01000000   102.23000000    39.68000000
   H     95.42000000   103.93000000    39.37000000
   N     97.56000000   101.90000000    39.05000000
   C     97.47000000   101.50000000    40.44000000
   C     96.65000000   100.23000000    40.56000000
   O     96.54000000    99.65000000    41.64000000
   C     98.92000000   101.38000000    40.90000000
   C     99.10000000   101.17000000    42.40000000
   N    100.19000000   100.55000000    42.87000000
   O     98.28000000   101.53000000    43.24000000
   H     98.32000000   101.59000000    38.46000000
   H     97.04000000   102.36000000    40.96000000
   H     99.40000000   102.35000000    40.79000000
   H     99.48000000   100.62000000    40.36000000
   H    100.88000000   100.24000000    42.21000000
   H    100.24000000   100.50000000    43.88000000
   N     96.08000000    99.67000000    39.49000000
   C     95.11000000    98.59000000    39.56000000
   C     94.05000000    98.95000000    40.58000000
   O     93.44000000    98.16000000    41.30000000
   H     96.04000000   100.29000000    38.69000000
   H     95.69000000    97.74000000    39.91000000
   H     94.60000000    98.43000000    38.61000000
   N     93.71000000   100.23000000    40.77000000
   C     92.69000000   100.91000000    41.54000000
   C     91.29000000   100.86000000    40.96000000
   O     90.70000000   101.92000000    40.80000000
   C     93.18000000   102.35000000    41.72000000
   C     92.54000000   103.13000000    42.86000000
   O     94.51000000   102.24000000    42.16000000
   H     94.20000000   100.89000000    40.19000000
   H     92.58000000   100.50000000    42.55000000
   H     93.12000000   102.87000000    40.76000000
   H     94.90000000   103.11000000    42.02000000
   H     92.80000000   104.19000000    42.83000000
   H     91.47000000   102.93000000    42.77000000
   H     92.96000000   102.81000000    43.81000000
   N     90.82000000    99.65000000    40.61000000
   C     89.64000000    99.44000000    39.80000000
   C     88.37000000    99.03000000    40.52000000
   O     88.50000000    98.47000000    41.61000000
   C     89.90000000    98.43000000    38.69000000
   C     91.01000000    98.90000000    37.75000000
   C     90.15000000    97.03000000    39.24000000
   C     91.27000000    98.04000000    36.51000000
   H     91.35000000    98.84000000    40.90000000
   H     89.33000000   100.39000000    39.36000000
   H     88.93000000    98.42000000    38.19000000
   H     91.96000000    98.91000000    38.28000000
   H     90.71000000    99.90000000    37.45000000
   H     89.44000000    96.69000000    39.99000000
   H     90.26000000    96.33000000    38.41000000
   H     91.12000000    97.05000000    39.74000000
   H     91.60000000    97.02000000    36.65000000
   H     90.36000000    98.13000000    35.92000000
   H     92.15000000    98.44000000    36.01000000
   N     87.19000000    99.30000000    39.96000000
   C     85.94000000    99.08000000    40.66000000
   C     85.07000000    98.13000000    39.85000000
   O     84.72000000    98.54000000    38.74000000
   C     85.25000000   100.42000000    40.92000000
   C     86.18000000   101.34000000    41.70000000
   O     86.62000000   101.17000000    42.86000000
   O     86.58000000   102.32000000    41.04000000
   H     87.15000000    99.93000000    39.17000000
   H     86.20000000    98.70000000    41.65000000
   H     84.29000000   100.41000000    41.44000000
   H     85.07000000   100.98000000    40.00000000
   N     84.70000000    96.94000000    40.34000000
   C     83.76000000    96.00000000    39.77000000
   C     83.99000000    95.86000000    38.27000000
   O     84.96000000    95.22000000    37.86000000
   C     83.79000000    94.72000000    40.60000000
   C     82.89000000    93.54000000    40.33000000
   C     83.25000000    92.40000000    39.61000000
   C     81.54000000    93.62000000    40.68000000
   C     82.34000000    91.39000000    39.26000000
   C     80.62000000    92.60000000    40.39000000
   C     81.00000000    91.49000000    39.63000000
   H     85.07000000    96.75000000    41.26000000
   H     82.79000000    96.43000000    40.00000000
   H     83.59000000    95.00000000    41.64000000
   H     84.83000000    94.38000000    40.52000000
   H     84.28000000    92.43000000    39.30000000
   H     81.16000000    94.43000000    41.30000000
   H     82.62000000    90.58000000    38.60000000
   H     79.62000000    92.70000000    40.77000000
   H     80.33000000    90.72000000    39.28000000
   N     83.15000000    96.44000000    37.42000000
   C     83.24000000    96.34000000    35.97000000
   C     84.55000000    96.78000000    35.34000000
   O     84.83000000    96.42000000    34.20000000
   C     82.07000000    97.11000000    35.37000000
   C     81.06000000    97.10000000    36.52000000
   C     81.91000000    97.10000000    37.79000000
   H     83.09000000    95.31000000    35.68000000
   H     82.29000000    98.18000000    35.28000000
   H     81.58000000    96.78000000    34.45000000
   H     80.34000000    97.92000000    36.49000000
   H     80.64000000    96.10000000    36.37000000
   H     82.10000000    98.11000000    38.15000000
   H     81.38000000    96.55000000    38.56000000
   N     85.30000000    97.67000000    36.00000000
   C     86.53000000    98.28000000    35.53000000
   C     87.65000000    97.25000000    35.42000000
   O     88.48000000    97.30000000    34.51000000
   C     86.81000000    99.39000000    36.52000000
   C     87.75000000   100.52000000    36.09000000
   C     87.68000000   101.77000000    36.95000000
   O     87.84000000   101.67000000    38.19000000
   O     87.38000000   102.89000000    36.48000000
   H     84.92000000    98.09000000    36.84000000
   H     86.47000000    98.68000000    34.51000000
   H     87.11000000    98.97000000    37.48000000
   H     85.84000000    99.88000000    36.64000000
   H     87.43000000   100.82000000    35.09000000
   H     88.76000000   100.11000000    36.01000000
   N     87.61000000    96.13000000    36.14000000
   C     88.30000000    94.88000000    35.87000000
   H     89.26700000    94.88300000    36.37400000
   H     87.70100000    94.04700000    36.23900000
   H     88.45100000    94.77200000    34.79600000
   H     86.93000000    96.12000000    36.88000000
  Ca     87.35000000   104.02400000    39.21000000
   O     88.97000000   103.65400000    41.42000000
   H     88.29000000   103.08400000    41.77000000
   H     89.65000000   103.05400000    41.11000000
   O     88.75000000   106.23400000    39.90000000
   H     89.41000000   105.87400000    39.31000000
   H     88.39000000   106.99400000    39.43000000
   O     86.37000000   106.16400000    37.82000000
   H     86.36000000   106.29400000    36.87000000
   H     85.54000000   106.53400000    38.12000000
   O     84.87000000   103.22400000    38.63000000
   H     84.52000000   102.51400000    38.10000000
   H     84.22000000   103.92400000    38.56000000

Ca 1.00



