%chk=loop1.holoCaM.run43.water2.chk
%nprocshared=20
%mem=10GB
%nosave
#b3lyp/svp scf=(tight,noincore,xqc) Test 
#IOP(5/87=12) Density=Current Pop=(MK,readradii) iop(6/33=2) iop(6/42=6)

loop1.holoCaM.run43.water2 

   0  1 
   C     60.51000000    82.59000000    16.80000000
   C     60.51000000    83.18000000    18.20000000
   O     59.57000000    82.90000000    18.94000000
   H     60.12500000    81.57100000    16.83600000
   H     59.87700000    83.19400000    16.15000000
   H     61.52800000    82.58000000    16.40900000
   N     61.52000000    83.98000000    18.58000000
   C     61.41000000    84.63000000    19.87000000
   C     60.39000000    85.74000000    19.64000000
   O     60.60000000    86.78000000    19.02000000
   C     62.73000000    85.27000000    20.30000000
   C     62.54000000    85.85000000    21.69000000
   O     63.44000000    86.67000000    21.98000000
   O     61.64000000    85.44000000    22.45000000
   H     62.38000000    83.91000000    18.06000000
   H     61.05000000    83.92000000    20.61000000
   H     63.09000000    86.06000000    19.65000000
   H     63.51000000    84.51000000    20.32000000
   N     59.27000000    85.56000000    20.35000000
   C     58.06000000    86.36000000    20.35000000
   C     57.90000000    87.37000000    21.47000000
   O     56.93000000    88.13000000    21.53000000
   C     56.88000000    85.39000000    20.34000000
   C     55.85000000    85.77000000    19.28000000
   C     56.19000000    85.45000000    17.83000000
   C     55.00000000    85.92000000    16.99000000
   N     54.83000000    87.38000000    16.92000000
   H     59.24000000    84.73000000    20.93000000
   H     58.06000000    87.01000000    19.48000000
   H     56.34000000    85.33000000    21.28000000
   H     57.11000000    84.33000000    20.18000000
   H     55.63000000    86.83000000    19.35000000
   H     54.98000000    85.17000000    19.54000000
   H     56.25000000    84.36000000    17.75000000
   H     57.16000000    85.87000000    17.56000000
   H     54.05000000    85.52000000    17.34000000
   H     55.20000000    85.46000000    16.02000000
   H     54.37000000    87.72000000    17.75000000
   H     55.74000000    87.79000000    16.84000000
   H     54.32000000    87.56000000    16.07000000
   N     58.76000000    87.32000000    22.49000000
   C     58.84000000    88.26000000    23.59000000
   C     60.16000000    88.99000000    23.78000000
   O     60.21000000    89.90000000    24.60000000
   C     58.21000000    87.76000000    24.89000000
   C     58.76000000    86.48000000    25.50000000
   O     58.33000000    86.20000000    26.64000000
   O     59.48000000    85.72000000    24.81000000
   H     59.41000000    86.56000000    22.59000000
   H     58.18000000    89.06000000    23.27000000
   H     57.16000000    87.56000000    24.70000000
   H     58.33000000    88.54000000    25.65000000
   N     61.23000000    88.64000000    23.06000000
   C     62.50000000    89.34000000    23.14000000
   C     63.47000000    89.10000000    24.28000000
   O     63.97000000    90.07000000    24.85000000
   H     60.99000000    87.93000000    22.38000000
   H     62.19000000    90.38000000    23.17000000
   H     63.07000000    89.19000000    22.23000000
   N     63.60000000    87.83000000    24.68000000
   C     64.54000000    87.44000000    25.70000000
   C     65.83000000    86.89000000    25.11000000
   O     66.81000000    86.83000000    25.85000000
   C     63.89000000    86.46000000    26.68000000
   C     63.11000000    85.35000000    26.00000000
   O     63.52000000    84.79000000    24.96000000
   O     61.99000000    85.11000000    26.50000000
   H     63.05000000    87.14000000    24.19000000
   H     64.88000000    88.29000000    26.29000000
   H     63.16000000    87.00000000    27.28000000
   H     64.62000000    86.17000000    27.44000000
   N     65.85000000    86.46000000    23.85000000
   C     66.93000000    85.77000000    23.18000000
   C     66.82000000    84.25000000    23.28000000
   O     67.77000000    83.52000000    22.99000000
   H     65.01000000    86.72000000    23.35000000
   H     67.89000000    86.05000000    23.63000000
   H     66.96000000    85.97000000    22.11000000
   N     65.75000000    83.65000000    23.79000000
   C     65.52000000    82.22000000    23.89000000
   C     64.19000000    81.69000000    23.37000000
   O     63.21000000    82.42000000    23.31000000
   C     65.83000000    81.71000000    25.29000000
   C     67.24000000    81.73000000    25.89000000
   O     64.96000000    82.42000000    26.13000000
   H     64.88000000    84.14000000    23.97000000
   H     66.28000000    81.73000000    23.28000000
   H     65.53000000    80.66000000    25.19000000
   H     65.26000000    83.33000000    26.13000000
   H     67.71000000    82.65000000    25.54000000
   H     67.28000000    81.56000000    26.96000000
   H     67.76000000    80.95000000    25.33000000
   N     64.24000000    80.44000000    22.90000000
   C     63.04000000    79.68000000    22.61000000
   C     62.35000000    78.94000000    23.75000000
   O     62.96000000    78.00000000    24.25000000
   C     63.31000000    78.82000000    21.38000000
   C     63.15000000    79.60000000    20.08000000
   C     62.50000000    77.53000000    21.26000000
   C     63.43000000    79.01000000    18.70000000
   H     65.07000000    79.87000000    23.00000000
   H     62.27000000    80.38000000    22.28000000
   H     64.34000000    78.49000000    21.45000000
   H     63.85000000    80.42000000    20.26000000
   H     62.17000000    80.07000000    19.99000000
   H     62.60000000    76.95000000    22.17000000
   H     61.48000000    77.70000000    20.90000000
   H     63.05000000    76.88000000    20.58000000
   H     64.21000000    78.25000000    18.78000000
   H     62.58000000    78.43000000    18.34000000
   H     63.71000000    79.80000000    17.99000000
   N     61.12000000    79.32000000    24.09000000
   C     60.31000000    78.68000000    25.11000000
   C     59.29000000    77.66000000    24.60000000
   O     59.16000000    77.41000000    23.40000000
   C     59.75000000    79.70000000    26.09000000
   C     58.38000000    80.20000000    25.65000000
   O     59.62000000    79.03000000    27.33000000
   H     60.81000000    80.12000000    23.55000000
   H     60.96000000    78.10000000    25.75000000
   H     60.43000000    80.54000000    26.24000000
   H     59.83000000    79.72000000    27.96000000
   H     58.34000000    79.96000000    24.59000000
   H     57.65000000    79.86000000    26.39000000
   H     58.20000000    81.26000000    25.86000000
   N     58.63000000    76.96000000    25.52000000
   C     57.85000000    75.79000000    25.16000000
   C     56.85000000    76.07000000    24.05000000
   O     56.77000000    75.35000000    23.06000000
   C     57.10000000    75.15000000    26.32000000
   C     56.41000000    73.80000000    26.14000000
   O     57.89000000    75.07000000    27.48000000
   H     58.65000000    77.32000000    26.47000000
   H     58.52000000    75.05000000    24.73000000
   H     56.37000000    75.90000000    26.64000000
   H     57.32000000    75.23000000    28.24000000
   H     57.14000000    73.00000000    25.99000000
   H     55.95000000    73.52000000    27.09000000
   H     55.63000000    73.87000000    25.38000000
   N     56.19000000    77.24000000    24.05000000
   C     55.29000000    77.67000000    23.00000000
   C     55.85000000    78.14000000    21.66000000
   O     55.15000000    78.18000000    20.65000000
   C     54.39000000    78.72000000    23.64000000
   C     54.93000000    80.13000000    23.83000000
   C     53.94000000    80.99000000    24.63000000
   C     54.51000000    82.40000000    24.67000000
   N     53.75000000    83.33000000    25.52000000
   H     56.25000000    77.73000000    24.92000000
   H     54.65000000    76.83000000    22.71000000
   H     54.13000000    78.31000000    24.61000000
   H     53.52000000    78.67000000    22.98000000
   H     54.96000000    80.60000000    22.85000000
   H     55.94000000    80.13000000    24.23000000
   H     53.93000000    80.54000000    25.62000000
   H     52.94000000    80.88000000    24.22000000
   H     54.53000000    82.72000000    23.63000000
   H     55.51000000    82.31000000    25.10000000
   H     53.78000000    83.08000000    26.50000000
   H     54.08000000    84.28000000    25.44000000
   H     52.78000000    83.20000000    25.27000000
   N     57.10000000    78.61000000    21.70000000
   C     57.85000000    79.09000000    20.56000000
   C     58.33000000    77.84000000    19.83000000
   O     58.17000000    77.77000000    18.62000000
   C     58.95000000    80.01000000    21.08000000
   C     58.33000000    81.29000000    21.63000000
   C     59.38000000    82.21000000    22.25000000
   O     60.43000000    81.79000000    22.76000000
   O     59.11000000    83.43000000    22.38000000
   H     57.60000000    78.39000000    22.56000000
   H     57.24000000    79.67000000    19.87000000
   H     59.57000000    80.23000000    20.21000000
   H     59.54000000    79.46000000    21.81000000
   H     57.62000000    81.10000000    22.43000000
   H     57.79000000    81.93000000    20.93000000
   N     58.75000000    76.82000000    20.58000000
   C     59.20000000    75.59000000    19.97000000
   H     60.19200000    75.34000000    20.34600000
   H     58.50600000    74.78700000    20.21600000
   H     59.24400000    75.71500000    18.88800000
   H     58.86000000    76.94000000    21.58000000
  Ca     61.06000000    83.87000000    24.31000000
   O     62.24000000    81.99000000    25.94000000
   H     61.91000000    81.88000000    26.83000000
   H     63.16000000    82.21000000    26.05000000
   O     59.67000000    83.69000000    26.82000000
   H     59.10000000    84.46000000    26.89000000
   H     60.49000000    83.96000000    27.23000000

Ca 1.00



