%chk=loop4.apoCaM-CA-Ng.Init293.run77.water3.chk
%nprocshared=20
%mem=10GB
%nosave
#b3lyp/svp scf=(tight,noincore,xqc) Test 
#IOP(5/87=12) Density=Current Pop=(MK,readradii) iop(6/33=2) iop(6/42=6)

loop4.apoCaM-CA-Ng.Init293.run77.water3 

   -3  1 
   C     45.57000000    89.23000000    62.93000000
   C     44.22000000    89.04000000    63.61000000
   O     43.19000000    89.20000000    62.96000000
   H     46.33000000    88.66200000    63.46700000
   H     45.51200000    88.87600000    61.90100000
   H     45.83500000    90.28700000    62.93700000
   N     44.27000000    88.82000000    64.93000000
   C     43.23000000    88.73000000    65.94000000
   C     42.19000000    87.63000000    65.79000000
   O     41.34000000    87.34000000    66.63000000
   C     42.60000000    90.07000000    66.30000000
   C     41.97000000    90.82000000    65.13000000
   O     40.90000000    90.38000000    64.66000000
   O     42.43000000    91.92000000    64.76000000
   H     45.21000000    88.66000000    65.23000000
   H     43.81000000    88.49000000    66.83000000
   H     43.34000000    90.70000000    66.80000000
   H     41.76000000    89.87000000    66.98000000
   N     42.24000000    86.92000000    64.66000000
   C     41.27000000    85.95000000    64.18000000
   C     39.96000000    86.61000000    63.77000000
   O     40.02000000    87.71000000    63.22000000
   C     41.80000000    85.15000000    62.99000000
   C     42.69000000    84.00000000    63.46000000
   C     42.44000000    86.01000000    61.91000000
   C     42.64000000    82.81000000    62.51000000
   H     43.03000000    87.10000000    64.06000000
   H     41.11000000    85.34000000    65.07000000
   H     40.96000000    84.71000000    62.46000000
   H     42.42000000    83.71000000    64.47000000
   H     43.74000000    84.24000000    63.65000000
   H     43.30000000    86.53000000    62.34000000
   H     42.76000000    85.29000000    61.15000000
   H     41.66000000    86.68000000    61.56000000
   H     43.05000000    82.98000000    61.52000000
   H     43.04000000    81.89000000    62.95000000
   H     41.60000000    82.51000000    62.38000000
   N     38.87000000    85.87000000    63.97000000
   C     37.48000000    86.05000000    63.62000000
   C     36.88000000    87.29000000    64.27000000
   O     36.88000000    87.47000000    65.49000000
   C     36.66000000    84.83000000    64.02000000
   C     36.84000000    84.18000000    65.38000000
   O     35.95000000    83.63000000    66.06000000
   O     38.01000000    84.09000000    65.83000000
   H     39.05000000    84.96000000    64.39000000
   H     37.33000000    86.13000000    62.55000000
   H     36.93000000    84.08000000    63.27000000
   H     35.62000000    85.09000000    63.79000000
   N     36.29000000    88.22000000    63.51000000
   C     36.23000000    88.33000000    62.07000000
   C     37.34000000    89.16000000    61.44000000
   O     38.16000000    89.72000000    62.16000000
   H     35.94000000    89.00000000    64.05000000
   H     35.31000000    88.88000000    61.86000000
   H     36.05000000    87.37000000    61.59000000
   N     37.38000000    89.19000000    60.11000000
   C     36.45000000    88.58000000    59.18000000
   C     37.21000000    88.11000000    57.95000000
   O     38.09000000    88.83000000    57.49000000
   C     35.44000000    89.61000000    58.66000000
   C     34.36000000    90.15000000    59.58000000
   O     33.47000000    89.41000000    60.03000000
   O     34.36000000    91.36000000    59.88000000
   H     38.25000000    89.51000000    59.70000000
   H     35.81000000    87.77000000    59.52000000
   H     34.93000000    89.12000000    57.83000000
   H     36.05000000    90.45000000    58.33000000
   N     37.06000000    86.89000000    57.43000000
   C     35.89000000    86.03000000    57.42000000
   C     36.10000000    84.61000000    56.92000000
   O     35.11000000    83.89000000    56.80000000
   H     37.87000000    86.66000000    56.88000000
   H     35.14000000    86.43000000    56.75000000
   H     35.60000000    85.98000000    58.47000000
   N     37.32000000    84.19000000    56.55000000
   C     37.48000000    82.89000000    55.94000000
   C     38.88000000    82.28000000    55.90000000
   O     39.02000000    81.16000000    55.44000000
   C     36.86000000    82.81000000    54.55000000
   C     37.76000000    83.21000000    53.39000000
   C     37.10000000    83.16000000    52.02000000
   N     36.24000000    84.12000000    51.67000000
   O     37.43000000    82.33000000    51.17000000
   H     38.07000000    84.85000000    56.75000000
   H     36.98000000    82.19000000    56.61000000
   H     35.92000000    83.34000000    54.47000000
   H     36.67000000    81.74000000    54.44000000
   H     38.62000000    82.53000000    53.35000000
   H     38.08000000    84.25000000    53.46000000
   H     35.72000000    84.68000000    52.32000000
   H     35.89000000    84.00000000    50.73000000
   N     39.88000000    82.97000000    56.45000000
   C     41.25000000    82.55000000    56.67000000
   C     42.18000000    83.73000000    56.39000000
   O     42.06000000    84.79000000    57.00000000
   C     41.56000000    81.95000000    58.04000000
   C     41.26000000    80.46000000    58.17000000
   C     40.78000000    82.59000000    59.18000000
   H     39.73000000    83.95000000    56.65000000
   H     41.39000000    81.80000000    55.89000000
   H     42.60000000    82.17000000    58.29000000
   H     41.84000000    80.16000000    59.05000000
   H     40.20000000    80.23000000    58.25000000
   H     41.78000000    79.89000000    57.40000000
   H     40.79000000    83.67000000    59.15000000
   H     39.73000000    82.37000000    58.97000000
   H     41.15000000    82.27000000    60.16000000
   N     43.11000000    83.57000000    55.45000000
   C     43.99000000    84.65000000    55.04000000
   C     43.28000000    85.75000000    54.27000000
   O     43.75000000    86.88000000    54.38000000
   C     45.18000000    84.03000000    54.32000000
   C     46.25000000    85.07000000    54.04000000
   N     46.62000000    85.36000000    52.79000000
   O     46.91000000    85.60000000    54.94000000
   H     43.18000000    82.72000000    54.91000000
   H     44.39000000    85.15000000    55.92000000
   H     44.81000000    83.52000000    53.43000000
   H     45.68000000    83.33000000    54.99000000
   H     46.18000000    84.95000000    51.98000000
   H     47.29000000    86.09000000    52.60000000
   N     42.29000000    85.36000000    53.47000000
   C     41.76000000    86.32000000    52.52000000
   C     41.01000000    87.47000000    53.16000000
   O     40.33000000    87.22000000    54.15000000
   C     40.85000000    85.60000000    51.53000000
   C     40.04000000    86.45000000    50.58000000
   C     40.64000000    87.40000000    49.76000000
   C     38.67000000    86.21000000    50.41000000
   C     39.88000000    88.12000000    48.83000000
   C     37.87000000    87.08000000    49.65000000
   C     38.48000000    87.99000000    48.77000000
   O     37.74000000    88.75000000    47.91000000
   H     42.01000000    84.39000000    53.44000000
   H     42.62000000    86.72000000    51.98000000
   H     40.16000000    85.02000000    52.15000000
   H     41.40000000    84.78000000    51.06000000
   H     41.72000000    87.45000000    49.88000000
   H     38.34000000    85.34000000    50.96000000
   H     40.36000000    88.86000000    48.20000000
   H     36.81000000    86.91000000    49.53000000
   H     38.29000000    89.47000000    47.58000000
   N     41.35000000    88.69000000    52.73000000
   C     41.05000000    89.92000000    53.44000000
   C     41.63000000    90.23000000    54.82000000
   O     41.51000000    91.35000000    55.29000000
   C     39.56000000    90.24000000    53.48000000
   C     38.83000000    90.00000000    52.16000000
   C     37.35000000    90.35000000    52.32000000
   O     36.77000000    90.90000000    51.36000000
   O     36.79000000    89.78000000    53.28000000
   H     41.93000000    88.75000000    51.90000000
   H     41.48000000    90.65000000    52.76000000
   H     39.43000000    91.30000000    53.69000000
   H     39.06000000    89.73000000    54.30000000
   H     38.95000000    88.95000000    51.88000000
   H     39.24000000    90.67000000    51.41000000
   N     42.29000000    89.26000000    55.45000000
   C     43.03000000    89.53000000    56.67000000
   C     44.48000000    89.80000000    56.31000000
   O     45.22000000    90.40000000    57.09000000
   C     43.06000000    88.31000000    57.60000000
   C     41.67000000    88.03000000    58.15000000
   C     41.48000000    88.77000000    59.47000000
   O     40.56000000    88.43000000    60.25000000
   O     42.03000000    89.86000000    59.72000000
   H     42.37000000    88.32000000    55.10000000
   H     42.70000000    90.41000000    57.22000000
   H     43.68000000    88.64000000    58.43000000
   H     43.42000000    87.42000000    57.08000000
   H     41.55000000    86.97000000    58.38000000
   H     40.95000000    88.37000000    57.41000000
   N     44.89000000    89.43000000    55.10000000
   C     45.92000000    90.00000000    54.27000000
   H     46.83000000    89.40800000    54.36400000
   H     45.59200000    89.99900000    53.23100000
   H     46.11900000    91.02300000    54.58800000
   H     44.42000000    88.65000000    54.65000000
  Ca     40.74000000    90.14000000    62.11000000
   O     42.62000000    92.02000000    61.95000000
   H     42.83000000    92.02000000    62.88000000
   H     42.54000000    92.95000000    61.72000000
   O     39.59000000    92.44000000    62.64000000
   H     39.80000000    93.28000000    63.05000000
   H     38.64000000    92.47000000    62.51000000
   O     39.49000000    91.37000000    60.02000000
   H     40.06000000    91.26000000    59.25000000
   H     39.06000000    92.21000000    59.87000000

Ca 1.00



