%chk=loop3.apoCaM-CA-Ng.Init295.run82.water4.chk
%nprocshared=20
%mem=10GB
%nosave
#b3lyp/svp scf=(tight,noincore,xqc) Test 
#IOP(5/87=12) Density=Current Pop=(MK,readradii) iop(6/33=2) iop(6/42=6)

loop3.apoCaM-CA-Ng.Init295.run82.water4 

   0  1 
   C    -14.74000000   -19.27000000    62.09000000
   C    -15.51000000   -20.56000000    62.26000000
   O    -16.73000000   -20.62000000    62.07000000
   H    -13.78200000   -19.47900000    61.61400000
   H    -15.31300000   -18.58400000    61.46600000
   H    -14.56900000   -18.81700000    63.06700000
   N    -14.88000000   -21.64000000    62.73000000
   C    -15.42000000   -22.95000000    63.00000000
   C    -16.41000000   -22.91000000    64.16000000
   O    -16.15000000   -22.32000000    65.20000000
   C    -14.31000000   -23.96000000    63.28000000
   C    -14.80000000   -25.40000000    63.21000000
   O    -14.12000000   -26.27000000    62.61000000
   O    -15.75000000   -25.80000000    63.91000000
   H    -13.91000000   -21.44000000    62.93000000
   H    -15.90000000   -23.26000000    62.07000000
   H    -13.85000000   -23.73000000    64.24000000
   H    -13.53000000   -23.90000000    62.52000000
   N    -17.62000000   -23.44000000    63.94000000
   C    -18.66000000   -23.51000000    64.94000000
   C    -18.29000000   -24.17000000    66.26000000
   O    -18.93000000   -23.82000000    67.25000000
   C    -19.94000000   -24.06000000    64.31000000
   C    -19.88000000   -25.44000000    63.65000000
   C    -21.16000000   -25.97000000    63.01000000
   C    -20.99000000   -27.41000000    62.53000000
   N    -20.42000000   -28.40000000    63.46000000
   H    -17.75000000   -23.91000000    63.05000000
   H    -18.86000000   -22.48000000    65.21000000
   H    -20.33000000   -23.32000000    63.61000000
   H    -20.72000000   -24.16000000    65.06000000
   H    -19.62000000   -26.20000000    64.39000000
   H    -19.07000000   -25.55000000    62.93000000
   H    -21.51000000   -25.34000000    62.19000000
   H    -21.99000000   -25.83000000    63.70000000
   H    -20.34000000   -27.35000000    61.66000000
   H    -22.01000000   -27.75000000    62.30000000
   H    -20.95000000   -28.44000000    64.32000000
   H    -20.25000000   -29.34000000    63.15000000
   H    -19.52000000   -28.05000000    63.75000000
   N    -17.37000000   -25.14000000    66.16000000
   C    -17.00000000   -26.11000000    67.17000000
   C    -15.50000000   -26.17000000    67.42000000
   O    -15.10000000   -26.74000000    68.43000000
   C    -17.53000000   -27.49000000    66.80000000
   C    -17.12000000   -28.07000000    65.45000000
   O    -17.92000000   -28.01000000    64.50000000
   O    -15.97000000   -28.56000000    65.34000000
   H    -17.09000000   -25.33000000    65.21000000
   H    -17.46000000   -25.80000000    68.11000000
   H    -18.61000000   -27.37000000    66.82000000
   H    -17.23000000   -28.22000000    67.56000000
   N    -14.72000000   -25.63000000    66.48000000
   C    -13.27000000   -25.58000000    66.56000000
   C    -12.57000000   -26.92000000    66.45000000
   O    -11.35000000   -26.98000000    66.58000000
   H    -15.23000000   -25.46000000    65.63000000
   H    -12.97000000   -25.08000000    67.49000000
   H    -12.94000000   -25.00000000    65.70000000
   N    -13.29000000   -27.99000000    66.08000000
   C    -12.69000000   -29.25000000    65.71000000
   C    -12.38000000   -29.26000000    64.22000000
   O    -13.22000000   -28.90000000    63.40000000
   C    -13.68000000   -30.33000000    66.13000000
   C    -13.05000000   -31.72000000    66.10000000
   N    -13.52000000   -32.64000000    66.95000000
   O    -12.16000000   -32.02000000    65.32000000
   H    -14.25000000   -27.84000000    65.81000000
   H    -11.68000000   -29.38000000    66.10000000
   H    -14.48000000   -30.36000000    65.39000000
   H    -14.00000000   -30.11000000    67.15000000
   H    -14.35000000   -32.36000000    67.45000000
   H    -13.07000000   -33.53000000    67.11000000
   N    -11.17000000   -29.70000000    63.87000000
   C    -10.67000000   -29.83000000    62.52000000
   C    -11.24000000   -31.02000000    61.76000000
   O    -11.24000000   -30.96000000    60.54000000
   H    -10.69000000   -30.14000000    64.64000000
   H     -9.59000000   -30.01000000    62.53000000
   H    -10.98000000   -28.91000000    62.01000000
   N    -11.77000000   -32.04000000    62.43000000
   C    -12.36000000   -33.19000000    61.77000000
   C    -13.58000000   -32.88000000    60.92000000
   O    -14.46000000   -32.11000000    61.32000000
   C    -12.71000000   -34.26000000    62.80000000
   C    -13.25000000   -35.53000000    62.19000000
   C    -14.63000000   -35.76000000    62.21000000
   C    -12.41000000   -36.47000000    61.57000000
   C    -15.16000000   -36.88000000    61.56000000
   C    -12.93000000   -37.61000000    60.95000000
   C    -14.32000000   -37.78000000    60.86000000
   O    -14.89000000   -38.91000000    60.36000000
   H    -12.03000000   -31.86000000    63.39000000
   H    -11.55000000   -33.53000000    61.12000000
   H    -13.56000000   -33.84000000    63.32000000
   H    -11.86000000   -34.45000000    63.46000000
   H    -15.30000000   -35.05000000    62.65000000
   H    -11.38000000   -36.16000000    61.48000000
   H    -16.23000000   -36.99000000    61.47000000
   H    -12.21000000   -38.34000000    60.60000000
   H    -14.24000000   -39.47000000    59.93000000
   N    -13.66000000   -33.48000000    59.73000000
   C    -14.76000000   -33.45000000    58.79000000
   C    -16.00000000   -34.11000000    59.38000000
   O    -16.49000000   -33.90000000    60.48000000
   C    -14.98000000   -32.04000000    58.26000000
   C    -16.19000000   -31.86000000    57.34000000
   C    -13.79000000   -31.44000000    57.53000000
   C    -16.69000000   -30.42000000    57.19000000
   H    -12.89000000   -34.05000000    59.42000000
   H    -14.50000000   -34.15000000    58.00000000
   H    -15.18000000   -31.36000000    59.10000000
   H    -16.97000000   -32.43000000    57.82000000
   H    -15.94000000   -32.21000000    56.34000000
   H    -13.83000000   -31.70000000    56.47000000
   H    -13.78000000   -30.35000000    57.55000000
   H    -12.84000000   -31.87000000    57.88000000
   H    -17.69000000   -30.27000000    56.79000000
   H    -16.82000000   -29.88000000    58.12000000
   H    -15.94000000   -29.85000000    56.63000000
   N    -16.58000000   -34.92000000    58.48000000
   C    -17.73000000   -35.73000000    58.83000000
   C    -18.00000000   -36.99000000    58.02000000
   O    -18.89000000   -37.79000000    58.31000000
   C    -19.03000000   -34.92000000    58.83000000
   O    -19.20000000   -34.37000000    57.55000000
   H    -16.23000000   -34.97000000    57.54000000
   H    -17.61000000   -36.14000000    59.83000000
   H    -18.93000000   -34.13000000    59.57000000
   H    -19.88000000   -35.51000000    59.17000000
   H    -19.87000000   -33.70000000    57.69000000
   N    -17.18000000   -37.27000000    57.00000000
   C    -17.00000000   -38.49000000    56.24000000
   C    -18.24000000   -39.04000000    55.56000000
   O    -18.77000000   -40.12000000    55.83000000
   C    -16.32000000   -39.46000000    57.21000000
   H    -16.51000000   -36.58000000    56.69000000
   H    -16.33000000   -38.26000000    55.41000000
   H    -16.13000000   -40.39000000    56.67000000
   H    -15.35000000   -39.04000000    57.47000000
   H    -16.95000000   -39.64000000    58.08000000
   N    -18.83000000   -38.32000000    54.60000000
   C    -18.76000000   -36.90000000    54.30000000
   C    -18.71000000   -36.56000000    52.82000000
   O    -19.06000000   -37.36000000    51.96000000
   C    -20.01000000   -36.22000000    54.87000000
   H    -19.60000000   -38.80000000    54.17000000
   H    -17.91000000   -36.53000000    54.87000000
   H    -19.97000000   -35.14000000    54.74000000
   H    -20.88000000   -36.47000000    54.27000000
   H    -20.12000000   -36.40000000    55.94000000
   N    -18.22000000   -35.38000000    52.42000000
   C    -17.65000000   -34.31000000    53.20000000
   C    -16.25000000   -33.87000000    52.80000000
   O    -15.43000000   -33.61000000    53.68000000
   C    -18.55000000   -33.09000000    53.07000000
   C    -18.05000000   -31.92000000    53.91000000
   C    -19.11000000   -30.84000000    54.07000000
   O    -20.13000000   -30.96000000    54.78000000
   O    -18.99000000   -29.75000000    53.47000000
   H    -18.08000000   -35.35000000    51.42000000
   H    -17.72000000   -34.64000000    54.24000000
   H    -19.55000000   -33.34000000    53.41000000
   H    -18.67000000   -32.72000000    52.05000000
   H    -17.06000000   -31.60000000    53.58000000
   H    -17.92000000   -32.31000000    54.92000000
   N    -16.04000000   -33.81000000    51.48000000
   C    -14.82000000   -33.53000000    50.75000000
   H    -14.00800000   -34.13200000    51.15700000
   H    -14.96100000   -33.77500000    49.69700000
   H    -14.57200000   -32.47300000    50.84700000
   H    -16.88000000   -33.80000000    50.92000000
  Ca    -15.94500000   -28.06500000    62.64000000
   O    -16.92500000   -25.85500000    61.07000000
   H    -17.28500000   -26.36500000    60.34000000
   H    -17.20500000   -24.95500000    60.90000000
   O    -17.96500000   -28.55500000    61.10000000
   H    -18.61500000   -29.24500000    61.23000000
   H    -18.03500000   -28.34500000    60.17000000
   O    -15.90500000   -30.69500000    62.68000000
   H    -16.60500000   -31.34500000    62.76000000
   H    -15.20500000   -31.15500000    62.21000000
   O    -14.74500000   -28.93500000    60.37000000
   H    -14.94500000   -29.85500000    60.21000000
   H    -13.95500000   -28.77500000    59.86000000

Ca 1.00



