%chk=loop2.holoCaM.run14.water1.chk
%nprocshared=20
%mem=10GB
%nosave
#b3lyp/svp scf=(tight,noincore,xqc) Test 
#IOP(5/87=12) Density=Current Pop=(MK,readradii) iop(6/33=2) iop(6/42=6)

loop2.holoCaM.run14.water1 

   -2  1 
   C     42.37000000    47.44000000    -0.08000000
   C     42.24000000    48.71000000    -0.90000000
   O     42.77000000    49.74000000    -0.50000000
   H     43.10100000    47.59400000     0.71400000
   H     41.40400000    47.19000000     0.35900000
   H     42.70000000    46.62400000    -0.72300000
   N     41.58000000    48.68000000    -2.06000000
   C     41.51000000    49.79000000    -3.00000000
   C     41.00000000    51.09000000    -2.39000000
   O     39.87000000    51.15000000    -1.91000000
   C     40.64000000    49.34000000    -4.17000000
   C     40.70000000    50.25000000    -5.39000000
   O     41.61000000    51.09000000    -5.56000000
   O     39.93000000    50.05000000    -6.36000000
   H     41.13000000    47.80000000    -2.25000000
   H     42.51000000    49.98000000    -3.37000000
   H     39.61000000    49.27000000    -3.83000000
   H     40.87000000    48.31000000    -4.44000000
   N     41.86000000    52.10000000    -2.26000000
   C     41.52000000    53.29000000    -1.51000000
   C     41.08000000    54.46000000    -2.38000000
   O     40.30000000    55.27000000    -1.87000000
   C     42.67000000    53.74000000    -0.63000000
   H     42.80000000    52.06000000    -2.63000000
   H     40.65000000    53.00000000    -0.91000000
   H     43.58000000    53.69000000    -1.23000000
   H     42.53000000    54.72000000    -0.18000000
   H     42.83000000    53.05000000     0.21000000
   N     41.43000000    54.54000000    -3.67000000
   C     40.81000000    55.55000000    -4.50000000
   C     39.64000000    54.94000000    -5.26000000
   O     38.78000000    55.72000000    -5.66000000
   C     41.76000000    56.18000000    -5.52000000
   C     42.62000000    55.26000000    -6.37000000
   O     43.10000000    54.22000000    -5.87000000
   O     42.94000000    55.60000000    -7.53000000
   H     42.25000000    54.06000000    -4.01000000
   H     40.38000000    56.34000000    -3.89000000
   H     42.42000000    56.84000000    -4.95000000
   H     41.33000000    56.87000000    -6.23000000
   N     39.50000000    53.62000000    -5.35000000
   C     38.37000000    52.88000000    -5.87000000
   C     38.35000000    52.94000000    -7.39000000
   O     37.59000000    53.72000000    -7.95000000
   H     40.21000000    53.06000000    -4.90000000
   H     37.44000000    53.37000000    -5.57000000
   H     38.43000000    51.84000000    -5.55000000
   N     39.14000000    52.13000000    -8.10000000
   C     39.24000000    52.03000000    -9.54000000
   C     39.45000000    50.61000000   -10.04000000
   O     39.67000000    50.37000000   -11.22000000
   C     40.32000000    53.00000000   -10.00000000
   C     41.70000000    52.67000000    -9.44000000
   N     42.75000000    53.40000000    -9.85000000
   O     41.94000000    51.85000000    -8.56000000
   H     39.73000000    51.51000000    -7.55000000
   H     38.28000000    52.36000000    -9.95000000
   H     40.01000000    54.01000000    -9.77000000
   H     40.43000000    52.94000000   -11.09000000
   H     42.52000000    54.27000000   -10.29000000
   H     43.67000000    53.16000000    -9.50000000
   N     39.29000000    49.60000000    -9.17000000
   C     39.39000000    48.20000000    -9.55000000
   C     40.81000000    47.68000000    -9.71000000
   O     40.96000000    46.61000000   -10.31000000
   H     39.29000000    49.77000000    -8.18000000
   H     38.86000000    48.07000000   -10.49000000
   H     38.95000000    47.58000000    -8.77000000
   N     41.80000000    48.40000000    -9.18000000
   C     43.17000000    47.93000000    -9.17000000
   C     44.02000000    48.28000000    -7.95000000
   O     43.85000000    49.30000000    -7.29000000
   C     43.89000000    48.36000000   -10.44000000
   C     43.41000000    47.77000000   -11.76000000
   O     43.98000000    49.77000000   -10.57000000
   H     41.56000000    49.21000000    -8.64000000
   H     43.14000000    46.84000000    -9.24000000
   H     44.95000000    48.12000000   -10.34000000
   H     44.00000000    49.99000000   -11.50000000
   H     44.19000000    47.99000000   -12.49000000
   H     43.35000000    46.69000000   -11.70000000
   H     42.43000000    48.14000000   -12.06000000
   N     44.94000000    47.37000000    -7.62000000
   C     45.88000000    47.51000000    -6.53000000
   C     47.13000000    48.20000000    -7.05000000
   O     47.89000000    47.65000000    -7.84000000
   C     46.10000000    46.13000000    -5.93000000
   C     44.89000000    45.85000000    -5.05000000
   C     47.36000000    46.03000000    -5.08000000
   C     44.84000000    44.48000000    -4.39000000
   H     44.93000000    46.49000000    -8.12000000
   H     45.44000000    48.08000000    -5.71000000
   H     46.18000000    45.45000000    -6.78000000
   H     44.00000000    45.90000000    -5.68000000
   H     44.81000000    46.61000000    -4.27000000
   H     47.42000000    46.84000000    -4.36000000
   H     47.47000000    45.05000000    -4.61000000
   H     48.18000000    46.16000000    -5.80000000
   H     45.05000000    43.66000000    -5.09000000
   H     45.62000000    44.46000000    -3.63000000
   H     43.83000000    44.42000000    -3.98000000
   N     47.39000000    49.41000000    -6.56000000
   C     48.61000000    50.19000000    -6.38000000
   C     49.53000000    49.71000000    -5.27000000
   O     49.10000000    49.06000000    -4.31000000
   C     48.36000000    51.64000000    -6.01000000
   C     47.39000000    52.43000000    -6.87000000
   O     47.79000000    52.64000000    -8.04000000
   O     46.34000000    52.92000000    -6.40000000
   H     46.70000000    49.65000000    -5.86000000
   H     49.24000000    50.11000000    -7.26000000
   H     49.30000000    52.20000000    -5.95000000
   H     47.87000000    51.59000000    -5.03000000
   N     50.81000000    50.07000000    -5.28000000
   C     51.79000000    49.59000000    -4.32000000
   C     51.35000000    49.88000000    -2.89000000
   O     51.46000000    48.96000000    -2.09000000
   C     53.13000000    50.16000000    -4.75000000
   C     54.19000000    49.93000000    -3.70000000
   C     54.64000000    48.62000000    -3.50000000
   C     54.59000000    51.01000000    -2.90000000
   C     55.59000000    48.35000000    -2.50000000
   C     55.52000000    50.70000000    -1.90000000
   C     56.04000000    49.41000000    -1.72000000
   H     51.14000000    50.72000000    -5.97000000
   H     51.87000000    48.51000000    -4.41000000
   H     53.18000000    51.21000000    -5.04000000
   H     53.39000000    49.66000000    -5.69000000
   H     54.34000000    47.79000000    -4.12000000
   H     54.25000000    52.03000000    -2.97000000
   H     55.87000000    47.34000000    -2.23000000
   H     55.73000000    51.41000000    -1.11000000
   H     56.65000000    49.18000000    -0.85000000
   N     50.92000000    51.08000000    -2.50000000
   C     50.57000000    51.31000000    -1.11000000
   C     49.37000000    50.49000000    -0.64000000
   O     49.17000000    50.23000000     0.54000000
   C     50.40000000    52.82000000    -0.98000000
   C     51.22000000    53.41000000    -2.13000000
   C     50.90000000    52.36000000    -3.19000000
   H     51.35000000    51.07000000    -0.38000000
   H     49.35000000    53.09000000    -1.06000000
   H     50.82000000    53.21000000    -0.06000000
   H     50.82000000    54.37000000    -2.48000000
   H     52.28000000    53.50000000    -1.90000000
   H     49.93000000    52.51000000    -3.66000000
   H     51.71000000    52.32000000    -3.92000000
   N     48.48000000    50.11000000    -1.55000000
   C     47.33000000    49.25000000    -1.38000000
   C     47.74000000    47.79000000    -1.18000000
   O     47.25000000    47.14000000    -0.27000000
   C     46.30000000    49.38000000    -2.50000000
   C     45.63000000    50.75000000    -2.50000000
   C     44.93000000    51.16000000    -3.79000000
   O     45.13000000    50.49000000    -4.83000000
   O     44.13000000    52.11000000    -3.92000000
   H     48.74000000    50.31000000    -2.51000000
   H     46.85000000    49.59000000    -0.46000000
   H     45.45000000    48.73000000    -2.30000000
   H     46.70000000    49.11000000    -3.48000000
   H     46.36000000    51.52000000    -2.25000000
   H     44.92000000    50.89000000    -1.68000000
   N     48.70000000    47.44000000    -2.04000000
   C     49.40000000    46.18000000    -1.95000000
   H     50.35100000    46.32900000    -1.43900000
   H     48.79500000    45.46700000    -1.39000000
   H     49.58400000    45.79300000    -2.95200000
   H     48.96000000    48.07000000    -2.78000000
  Ca     43.86000000    51.88000000    -6.50000000
   O     44.93000000    51.57000000    -8.79000000
   H     45.86000000    51.69000000    -8.95000000
   H     44.67000000    50.89000000    -9.41000000

Ca 1.00



