%chk=loop2.apoCaM-CA-Ng.Init31.run10.water3.chk
%nprocshared=20
%mem=10GB
%nosave
#b3lyp/svp scf=(tight,noincore,xqc) Test 
#IOP(5/87=12) Density=Current Pop=(MK,readradii) iop(6/33=2) iop(6/42=6)

loop2.apoCaM-CA-Ng.Init31.run10.water3 

   -2  1 
   C     49.79000000    70.18000000     7.40000000
   C     49.31000000    71.62000000     7.40000000
   O     50.19000000    72.49000000     7.41000000
   H     50.75000000    70.11700000     7.91300000
   H     49.06200000    69.55400000     7.91500000
   H     49.90500000    69.83500000     6.37300000
   N     48.06000000    72.01000000     7.14000000
   C     46.98000000    71.27000000     6.52000000
   C     45.70000000    71.59000000     7.28000000
   O     45.36000000    72.73000000     7.56000000
   C     46.87000000    71.70000000     5.06000000
   C     46.98000000    73.16000000     4.65000000
   O     47.11000000    73.54000000     3.46000000
   O     47.10000000    74.01000000     5.55000000
   H     47.95000000    73.00000000     6.98000000
   H     47.13000000    70.20000000     6.68000000
   H     46.03000000    71.20000000     4.58000000
   H     47.80000000    71.27000000     4.69000000
   N     44.89000000    70.56000000     7.53000000
   C     43.54000000    70.64000000     8.05000000
   C     42.51000000    71.40000000     7.22000000
   O     41.33000000    71.08000000     7.31000000
   C     43.38000000    71.06000000     9.51000000
   H     45.19000000    69.61000000     7.37000000
   H     43.13000000    69.63000000     7.98000000
   H     44.08000000    71.83000000     9.85000000
   H     42.35000000    71.25000000     9.79000000
   H     43.66000000    70.17000000    10.06000000
   N     42.91000000    72.25000000     6.27000000
   C     42.09000000    73.03000000     5.37000000
   C     42.96000000    73.77000000     4.37000000
   O     43.97000000    74.38000000     4.69000000
   C     41.24000000    73.94000000     6.26000000
   C     41.83000000    74.68000000     7.45000000
   O     42.99000000    75.16000000     7.40000000
   O     41.12000000    74.93000000     8.44000000
   H     43.88000000    72.54000000     6.29000000
   H     41.37000000    72.45000000     4.79000000
   H     40.50000000    73.27000000     6.69000000
   H     40.80000000    74.67000000     5.58000000
   N     42.52000000    73.70000000     3.10000000
   C     43.09000000    74.12000000     1.84000000
   C     43.34000000    75.62000000     1.67000000
   O     43.52000000    76.05000000     0.53000000
   H     41.66000000    73.17000000     3.10000000
   H     42.47000000    73.80000000     1.01000000
   H     44.09000000    73.68000000     1.86000000
   N     43.57000000    76.36000000     2.76000000
   C     43.98000000    77.74000000     2.80000000
   C     45.45000000    77.99000000     3.15000000
   O     45.77000000    79.18000000     3.23000000
   C     43.13000000    78.56000000     3.77000000
   C     43.17000000    78.07000000     5.21000000
   N     42.29000000    78.52000000     6.10000000
   O     44.00000000    77.24000000     5.58000000
   H     43.63000000    75.85000000     3.63000000
   H     43.88000000    78.18000000     1.81000000
   H     42.09000000    78.57000000     3.44000000
   H     43.42000000    79.61000000     3.80000000
   H     41.51000000    78.98000000     5.66000000
   H     42.43000000    78.48000000     7.10000000
   N     46.29000000    76.99000000     3.39000000
   C     47.70000000    77.18000000     3.67000000
   C     48.03000000    77.51000000     5.12000000
   O     47.21000000    77.41000000     6.03000000
   H     45.93000000    76.07000000     3.56000000
   H     48.07000000    77.91000000     2.95000000
   H     48.31000000    76.32000000     3.38000000
   N     49.27000000    77.96000000     5.35000000
   C     50.26000000    78.55000000     4.47000000
   C     51.69000000    78.12000000     4.72000000
   O     52.45000000    78.25000000     3.76000000
   C     50.14000000    80.07000000     4.56000000
   C     48.71000000    80.60000000     4.48000000
   O     50.49000000    80.53000000     5.85000000
   H     49.41000000    78.12000000     6.33000000
   H     50.00000000    78.24000000     3.46000000
   H     50.69000000    80.61000000     3.80000000
   H     51.24000000    81.12000000     5.76000000
   H     48.18000000    80.29000000     5.39000000
   H     48.69000000    81.68000000     4.41000000
   H     48.19000000    80.22000000     3.60000000
   N     52.02000000    77.65000000     5.93000000
   C     53.32000000    77.61000000     6.56000000
   C     54.09000000    78.92000000     6.44000000
   O     55.03000000    79.01000000     5.66000000
   C     54.03000000    76.32000000     6.17000000
   C     53.20000000    75.06000000     6.01000000
   C     55.19000000    76.06000000     7.13000000
   C     53.94000000    73.74000000     5.83000000
   H     51.23000000    77.46000000     6.53000000
   H     53.09000000    77.44000000     7.61000000
   H     54.50000000    76.52000000     5.20000000
   H     52.51000000    75.18000000     5.17000000
   H     52.63000000    74.89000000     6.92000000
   H     55.76000000    76.98000000     7.31000000
   H     54.87000000    75.64000000     8.08000000
   H     55.90000000    75.41000000     6.62000000
   H     54.48000000    73.44000000     6.73000000
   H     53.22000000    72.94000000     5.67000000
   H     54.56000000    73.74000000     4.93000000
   N     53.83000000    79.98000000     7.21000000
   C     53.05000000    79.95000000     8.43000000
   C     53.77000000    79.17000000     9.52000000
   O     53.17000000    78.66000000    10.47000000
   C     52.76000000    81.37000000     8.92000000
   C     53.96000000    82.28000000     9.11000000
   O     53.80000000    83.39000000     9.66000000
   O     55.14000000    81.90000000     8.91000000
   H     54.19000000    80.87000000     6.88000000
   H     52.13000000    79.44000000     8.15000000
   H     52.20000000    81.32000000     9.85000000
   H     52.18000000    81.86000000     8.13000000
   N     55.09000000    79.08000000     9.37000000
   C     55.94000000    78.26000000    10.21000000
   C     55.93000000    78.72000000    11.66000000
   O     55.59000000    79.88000000    11.87000000
   C     57.35000000    78.26000000     9.61000000
   C     58.12000000    79.53000000     9.87000000
   C     58.02000000    80.67000000     9.06000000
   C     59.00000000    79.68000000    10.95000000
   C     58.82000000    81.80000000     9.24000000
   C     59.88000000    80.75000000    11.13000000
   C     59.79000000    81.83000000    10.25000000
   H     55.39000000    79.77000000     8.68000000
   H     55.48000000    77.28000000    10.21000000
   H     57.26000000    77.96000000     8.57000000
   H     57.88000000    77.49000000    10.16000000
   H     57.31000000    80.60000000     8.25000000
   H     59.21000000    78.78000000    11.52000000
   H     58.82000000    82.73000000     8.69000000
   H     60.68000000    80.71000000    11.85000000
   H     60.60000000    82.55000000    10.33000000
   N     56.25000000    77.92000000    12.68000000
   C     56.70000000    76.54000000    12.62000000
   C     55.60000000    75.57000000    12.22000000
   O     54.44000000    75.95000000    12.04000000
   C     57.31000000    76.21000000    13.98000000
   C     57.69000000    77.58000000    14.54000000
   C     56.55000000    78.43000000    14.00000000
   H     57.51000000    76.31000000    11.93000000
   H     56.58000000    75.73000000    14.63000000
   H     58.17000000    75.55000000    13.93000000
   H     57.91000000    77.64000000    15.61000000
   H     58.59000000    77.85000000    13.98000000
   H     55.67000000    78.47000000    14.64000000
   H     56.89000000    79.47000000    13.90000000
   N     55.97000000    74.29000000    12.18000000
   C     55.03000000    73.25000000    11.79000000
   C     55.50000000    72.16000000    10.84000000
   O     54.72000000    71.24000000    10.58000000
   C     54.38000000    72.72000000    13.06000000
   C     55.33000000    71.88000000    13.91000000
   C     54.86000000    71.53000000    15.31000000
   O     55.40000000    72.04000000    16.31000000
   O     53.96000000    70.66000000    15.35000000
   H     56.72000000    73.98000000    12.78000000
   H     54.31000000    73.75000000    11.14000000
   H     53.51000000    72.10000000    12.84000000
   H     54.12000000    73.58000000    13.69000000
   H     56.21000000    72.52000000    13.97000000
   H     55.67000000    71.03000000    13.32000000
   N     56.65000000    72.15000000    10.15000000
   C     57.70000000    73.14000000    10.10000000
   H     58.57700000    72.71400000     9.61200000
   H     57.35600000    74.00700000     9.53600000
   H     57.96100000    73.44500000    11.11300000
   H     56.71000000    71.46000000     9.41000000
  Ca     45.47000000    75.48000000     7.20000000
   O     48.00000000    75.55000000     8.27000000
   H     48.63000000    76.12000000     7.83000000
   H     48.52000000    75.06000000     8.91000000
   O     44.92000000    77.77000000     8.52000000
   H     45.43000000    78.54000000     8.76000000
   H     44.01000000    78.06000000     8.53000000
   O     45.26000000    74.81000000     9.87000000
   H     44.40000000    74.90000000    10.29000000
   H     45.64000000    74.03000000    10.27000000

Ca 1.00



