%chk=loop4.holoCaM-CaMKII.run91.water2.chk
%nprocshared=20
%mem=10GB
%nosave
#b3lyp/svp scf=(tight,noincore,xqc) Test 
#IOP(5/87=12) Density=Current Pop=(MK,readradii) iop(6/33=2) iop(6/42=6)

loop4.holoCaM-CaMKII.run91.water2 

   -3  1 
   C     56.35000000    36.11000000    14.37900000
   C     56.22000000    37.32000000    15.28900000
   O     57.00000000    38.27000000    15.17900000
   H     57.38600000    35.77000000    14.37400000
   H     55.70700000    35.30900000    14.74400000
   H     56.05200000    36.38300000    13.36600000
   N     55.30000000    37.34000000    16.24900000
   C     55.30000000    38.27000000    17.36900000
   C     56.49000000    38.09000000    18.28900000
   O     56.68000000    37.07000000    18.94900000
   C     54.04000000    37.90000000    18.15900000
   C     53.91000000    38.71000000    19.43900000
   O     54.29000000    39.90000000    19.49900000
   O     53.25000000    38.27000000    20.39900000
   H     54.95000000    36.42000000    16.47900000
   H     55.25000000    39.31000000    17.04900000
   H     54.05000000    36.82000000    18.31900000
   H     53.12000000    38.06000000    17.58900000
   N     57.39000000    39.07000000    18.20900000
   C     58.66000000    39.01000000    18.90900000
   C     58.78000000    39.82000000    20.18900000
   O     59.51000000    39.51000000    21.12900000
   C     59.86000000    39.36000000    18.01900000
   C     59.69000000    40.55000000    17.07900000
   C     60.18000000    38.12000000    17.17900000
   C     61.01000000    41.16000000    16.61900000
   H     57.15000000    39.86000000    17.63900000
   H     58.76000000    37.96000000    19.17900000
   H     60.74000000    39.52000000    18.63900000
   H     59.14000000    41.28000000    17.66900000
   H     59.04000000    40.18000000    16.27900000
   H     59.58000000    38.03000000    16.26900000
   H     61.14000000    38.37000000    16.73900000
   H     60.24000000    37.16000000    17.68900000
   H     60.83000000    42.17000000    16.24900000
   H     61.70000000    41.43000000    17.41900000
   H     61.54000000    40.57000000    15.86900000
   N     58.03000000    40.92000000    20.23900000
   C     57.95000000    41.67000000    21.47900000
   C     56.91000000    41.23000000    22.49900000
   O     56.87000000    41.72000000    23.62900000
   C     57.80000000    43.17000000    21.20900000
   C     56.60000000    43.71000000    20.43900000
   O     56.59000000    44.95000000    20.26900000
   O     55.78000000    42.96000000    19.86900000
   H     57.63000000    41.25000000    19.36900000
   H     58.90000000    41.59000000    21.99900000
   H     58.67000000    43.56000000    20.67900000
   H     57.75000000    43.67000000    22.16900000
   N     56.04000000    40.33000000    22.04900000
   C     55.21000000    39.44000000    22.83900000
   C     53.91000000    40.15000000    23.19900000
   O     53.81000000    40.64000000    24.31900000
   H     56.04000000    40.11000000    21.06900000
   H     55.72000000    39.25000000    23.77900000
   H     55.04000000    38.56000000    22.21900000
   N     52.94000000    40.11000000    22.27900000
   C     51.65000000    40.71000000    22.54900000
   C     50.42000000    40.16000000    21.83900000
   O     49.32000000    40.63000000    22.10900000
   C     51.68000000    42.20000000    22.19900000
   C     52.21000000    42.42000000    20.78900000
   O     52.84000000    43.41000000    20.36900000
   O     51.88000000    41.61000000    19.88900000
   H     53.26000000    39.79000000    21.37900000
   H     51.47000000    40.63000000    23.61900000
   H     52.36000000    42.73000000    22.85900000
   H     50.74000000    42.68000000    22.45900000
   N     50.51000000    39.18000000    20.93900000
   C     49.43000000    38.48000000    20.25900000
   C     49.08000000    39.04000000    18.88900000
   O     48.08000000    38.62000000    18.30900000
   H     51.45000000    38.87000000    20.76900000
   H     48.53000000    38.47000000    20.87900000
   H     49.79000000    37.47000000    20.07900000
   N     49.84000000    40.04000000    18.40900000
   C     49.69000000    40.68000000    17.11900000
   C     51.02000000    40.69000000    16.38900000
   O     52.08000000    40.79000000    17.00900000
   C     49.10000000    42.08000000    17.24900000
   C     47.59000000    42.00000000    17.39900000
   C     46.95000000    43.38000000    17.29900000
   N     47.03000000    44.10000000    18.41900000
   O     46.53000000    43.87000000    16.25900000
   H     50.59000000    40.40000000    18.97900000
   H     49.01000000    40.05000000    16.53900000
   H     49.45000000    42.57000000    16.33900000
   H     49.62000000    42.58000000    18.06900000
   H     47.37000000    41.35000000    18.24900000
   H     47.15000000    41.49000000    16.53900000
   H     47.43000000    43.73000000    19.26900000
   H     46.88000000    45.10000000    18.48900000
   N     51.04000000    40.64000000    15.05900000
   C     52.24000000    40.87000000    14.28900000
   C     52.21000000    42.25000000    13.64900000
   O     51.25000000    42.48000000    12.91900000
   C     52.29000000    39.75000000    13.24900000
   C     53.48000000    39.86000000    12.29900000
   C     52.33000000    38.40000000    13.94900000
   H     50.20000000    40.43000000    14.52900000
   H     53.15000000    40.76000000    14.87900000
   H     51.44000000    39.78000000    12.55900000
   H     54.43000000    39.75000000    12.81900000
   H     53.47000000    39.02000000    11.58900000
   H     53.48000000    40.83000000    11.79900000
   H     52.25000000    37.59000000    13.21900000
   H     53.26000000    38.39000000    14.51900000
   H     51.44000000    38.29000000    14.55900000
   N     53.08000000    43.19000000    14.01900000
   C     53.22000000    44.44000000    13.29900000
   C     53.84000000    44.31000000    11.91900000
   O     54.59000000    43.38000000    11.63900000
   C     54.02000000    45.28000000    14.29900000
   C     54.38000000    46.66000000    13.78900000
   N     53.42000000    47.58000000    13.89900000
   O     55.44000000    46.84000000    13.18900000
   H     53.73000000    42.90000000    14.73900000
   H     52.23000000    44.88000000    13.16900000
   H     54.97000000    44.82000000    14.57900000
   H     53.42000000    45.38000000    15.20900000
   H     52.48000000    47.42000000    14.21900000
   H     53.72000000    48.53000000    13.71900000
   N     53.59000000    45.33000000    11.09900000
   C     54.21000000    45.38000000     9.78900000
   C     55.72000000    45.21000000     9.84900000
   O     56.35000000    44.59000000     8.98900000
   C     53.84000000    46.62000000     8.98900000
   C     54.49000000    46.70000000     7.62900000
   C     53.85000000    45.95000000     6.62900000
   C     55.66000000    47.42000000     7.34900000
   C     54.29000000    45.93000000     5.30900000
   C     56.17000000    47.28000000     6.05900000
   C     55.49000000    46.61000000     5.01900000
   O     56.07000000    46.61000000     3.77900000
   H     52.92000000    46.05000000    11.32900000
   H     53.81000000    44.55000000     9.19900000
   H     53.85000000    47.54000000     9.56900000
   H     52.76000000    46.57000000     8.83900000
   H     52.87000000    45.55000000     6.84900000
   H     56.25000000    47.81000000     8.16900000
   H     53.72000000    45.39000000     4.56900000
   H     57.15000000    47.63000000     5.78900000
   H     56.94000000    47.01000000     3.82900000
   N     56.48000000    45.71000000    10.82900000
   C     57.91000000    45.45000000    10.87900000
   C     58.29000000    44.04000000    11.30900000
   O     59.28000000    43.46000000    10.85900000
   C     58.51000000    46.41000000    11.89900000
   C     60.03000000    46.55000000    11.77900000
   C     60.61000000    47.14000000    13.05900000
   O     61.85000000    47.07000000    13.16900000
   O     59.98000000    47.87000000    13.85900000
   H     56.02000000    46.21000000    11.57900000
   H     58.41000000    45.69000000     9.94900000
   H     58.36000000    45.96000000    12.87900000
   H     58.17000000    47.44000000    11.83900000
   H     60.41000000    47.15000000    10.95900000
   H     60.45000000    45.54000000    11.78900000
   N     57.48000000    43.39000000    12.15900000
   C     57.65000000    41.98000000    12.40900000
   C     57.22000000    41.08000000    11.25900000
   O     57.62000000    39.92000000    11.16900000
   C     56.83000000    41.58000000    13.62900000
   C     57.07000000    42.30000000    14.95900000
   C     56.06000000    41.99000000    16.04900000
   O     56.29000000    41.42000000    17.13900000
   O     54.88000000    42.26000000    15.75900000
   H     56.67000000    43.88000000    12.50900000
   H     58.71000000    41.78000000    12.58900000
   H     56.91000000    40.51000000    13.80900000
   H     55.78000000    41.77000000    13.42900000
   H     57.14000000    43.36000000    14.74900000
   H     58.05000000    42.05000000    15.36900000
   N     56.56000000    41.65000000    10.25900000
   C     56.21000000    40.96000000     9.02900000
   H     55.36100000    41.46000000     8.56200000
   H     57.06100000    40.97600000     8.34800000
   H     55.94400000    39.92700000     9.25400000
   H     56.17000000    42.57000000    10.42900000
  Ca     53.98000000    42.08000000    18.28000000
   O     52.45000000    44.15000000    17.44000000
   H     51.70000000    44.48000000    17.93000000
   H     53.16000000    44.76000000    17.65000000
   O     55.18000000    44.58000000    17.66000000
   H     55.98000000    44.53000000    18.19000000
   H     55.23000000    45.44000000    17.24000000

Ca 1.00



