%chk=loop3.apoCaM-CA-Ng.Init293.run17.water4.chk
%nprocshared=20
%mem=10GB
%nosave
#b3lyp/svp scf=(tight,noincore,xqc) Test 
#IOP(5/87=12) Density=Current Pop=(MK,readradii) iop(6/33=2) iop(6/42=6)

loop3.apoCaM-CA-Ng.Init293.run17.water4 

   0  1 
   C     55.63000000    26.74000000     6.63000000
   C     55.13000000    27.58000000     5.46000000
   O     55.68000000    28.64000000     5.18000000
   H     56.52200000    27.20200000     7.05300000
   H     54.85500000    26.68200000     7.39400000
   H     55.87200000    25.73600000     6.28000000
   N     54.00000000    27.16000000     4.89000000
   C     53.03000000    27.85000000     4.07000000
   C     52.28000000    28.93000000     4.84000000
   O     52.58000000    29.30000000     5.98000000
   C     53.65000000    28.31000000     2.75000000
   C     54.40000000    27.23000000     1.98000000
   O     53.81000000    26.17000000     1.71000000
   O     55.61000000    27.40000000     1.68000000
   H     53.76000000    26.20000000     5.10000000
   H     52.28000000    27.13000000     3.73000000
   H     54.16000000    29.26000000     2.95000000
   H     52.83000000    28.57000000     2.09000000
   N     51.25000000    29.41000000     4.14000000
   C     50.19000000    30.33000000     4.49000000
   C     50.67000000    31.76000000     4.69000000
   O     50.50000000    32.61000000     3.82000000
   C     49.25000000    29.83000000     5.59000000
   C     48.77000000    28.41000000     5.34000000
   C     47.66000000    27.89000000     6.25000000
   C     47.24000000    26.42000000     6.13000000
   N     48.37000000    25.49000000     5.94000000
   H     51.06000000    28.90000000     3.30000000
   H     49.50000000    30.38000000     3.65000000
   H     48.40000000    30.51000000     5.52000000
   H     49.65000000    29.96000000     6.59000000
   H     49.67000000    27.83000000     5.55000000
   H     48.62000000    28.15000000     4.29000000
   H     46.92000000    28.68000000     6.22000000
   H     48.10000000    27.86000000     7.25000000
   H     46.49000000    26.36000000     5.34000000
   H     46.86000000    26.31000000     7.14000000
   H     48.95000000    25.50000000     6.76000000
   H     48.15000000    24.52000000     5.74000000
   H     48.97000000    25.72000000     5.17000000
   N     51.34000000    32.03000000     5.81000000
   C     51.64000000    33.37000000     6.26000000
   C     52.58000000    33.37000000     7.46000000
   O     52.65000000    32.34000000     8.12000000
   C     50.28000000    33.95000000     6.64000000
   C     50.25000000    35.45000000     6.91000000
   O     49.29000000    35.86000000     7.60000000
   O     51.17000000    36.19000000     6.49000000
   H     51.63000000    31.29000000     6.44000000
   H     52.10000000    33.93000000     5.45000000
   H     49.88000000    33.38000000     7.48000000
   H     49.56000000    33.79000000     5.84000000
   N     53.15000000    34.53000000     7.77000000
   C     53.97000000    34.91000000     8.91000000
   C     53.44000000    36.18000000     9.55000000
   O     52.26000000    36.50000000     9.71000000
   H     52.96000000    35.22000000     7.05000000
   H     55.02000000    34.93000000     8.61000000
   H     54.08000000    34.15000000     9.68000000
   N     54.46000000    36.83000000    10.13000000
   C     54.40000000    37.88000000    11.12000000
   C     55.01000000    39.20000000    10.67000000
   O     55.13000000    40.20000000    11.38000000
   C     55.05000000    37.46000000    12.44000000
   C     54.46000000    36.20000000    13.06000000
   N     53.66000000    36.36000000    14.12000000
   O     54.50000000    35.07000000    12.59000000
   H     55.38000000    36.41000000    10.15000000
   H     53.35000000    38.05000000    11.35000000
   H     55.02000000    38.20000000    13.23000000
   H     56.09000000    37.21000000    12.24000000
   H     53.58000000    37.29000000    14.49000000
   H     53.02000000    35.61000000    14.35000000
   N     55.48000000    39.20000000     9.42000000
   C     56.35000000    40.24000000     8.90000000
   C     57.73000000    40.07000000     9.52000000
   O     58.26000000    38.98000000     9.78000000
   H     55.50000000    38.29000000     9.00000000
   H     55.93000000    41.21000000     9.15000000
   H     56.46000000    40.19000000     7.82000000
   N     58.43000000    41.18000000     9.75000000
   C     59.56000000    41.31000000    10.65000000
   C     59.20000000    41.02000000    12.10000000
   O     59.60000000    41.82000000    12.94000000
   C     60.74000000    40.48000000    10.18000000
   C     62.03000000    40.55000000    10.97000000
   C     62.53000000    39.40000000    11.57000000
   C     62.50000000    41.81000000    11.38000000
   C     63.71000000    39.39000000    12.33000000
   C     63.65000000    41.84000000    12.17000000
   C     64.26000000    40.65000000    12.61000000
   O     65.43000000    40.69000000    13.31000000
   H     58.09000000    42.09000000     9.46000000
   H     59.84000000    42.36000000    10.64000000
   H     61.06000000    40.81000000     9.19000000
   H     60.57000000    39.42000000    10.01000000
   H     62.02000000    38.45000000    11.47000000
   H     62.02000000    42.66000000    10.92000000
   H     64.18000000    38.48000000    12.68000000
   H     64.14000000    42.80000000    12.23000000
   H     65.77000000    41.59000000    13.39000000
   N     58.35000000    40.02000000    12.33000000
   C     57.82000000    39.60000000    13.62000000
   C     56.98000000    40.73000000    14.20000000
   O     55.76000000    40.74000000    14.10000000
   C     58.78000000    38.79000000    14.49000000
   C     59.27000000    37.52000000    13.80000000
   C     58.05000000    38.20000000    15.70000000
   C     60.66000000    37.10000000    14.29000000
   H     58.01000000    39.50000000    11.54000000
   H     57.06000000    38.85000000    13.40000000
   H     59.66000000    39.39000000    14.71000000
   H     59.29000000    37.62000000    12.71000000
   H     58.57000000    36.70000000    13.91000000
   H     57.73000000    39.10000000    16.22000000
   H     57.14000000    37.64000000    15.48000000
   H     58.73000000    37.57000000    16.27000000
   H     61.41000000    37.85000000    14.05000000
   H     60.67000000    36.87000000    15.35000000
   H     60.87000000    36.15000000    13.80000000
   N     57.63000000    41.70000000    14.86000000
   C     57.11000000    42.95000000    15.36000000
   C     56.32000000    42.82000000    16.66000000
   O     55.52000000    43.69000000    17.00000000
   C     58.22000000    43.98000000    15.47000000
   O     59.49000000    43.43000000    15.75000000
   H     58.64000000    41.61000000    14.83000000
   H     56.41000000    43.41000000    14.66000000
   H     57.98000000    44.78000000    16.17000000
   H     58.22000000    44.36000000    14.45000000
   H     60.02000000    44.02000000    16.29000000
   N     56.38000000    41.66000000    17.33000000
   C     55.43000000    41.19000000    18.31000000
   C     53.98000000    41.06000000    17.88000000
   O     53.06000000    41.01000000    18.69000000
   C     55.64000000    42.04000000    19.57000000
   H     57.17000000    41.08000000    17.07000000
   H     55.77000000    40.20000000    18.62000000
   H     55.21000000    43.03000000    19.45000000
   H     55.07000000    41.56000000    20.37000000
   H     56.66000000    42.12000000    19.95000000
   N     53.76000000    41.22000000    16.57000000
   C     52.52000000    41.03000000    15.84000000
   C     52.28000000    39.55000000    15.56000000
   O     53.24000000    38.79000000    15.45000000
   C     52.54000000    41.87000000    14.56000000
   H     54.50000000    41.52000000    15.95000000
   H     51.70000000    41.41000000    16.45000000
   H     52.42000000    42.92000000    14.81000000
   H     53.53000000    41.77000000    14.12000000
   H     51.77000000    41.49000000    13.89000000
   N     50.98000000    39.26000000    15.53000000
   C     50.43000000    37.95000000    15.23000000
   C     51.05000000    36.80000000    16.00000000
   O     51.00000000    35.66000000    15.53000000
   C     50.52000000    37.72000000    13.73000000
   C     49.74000000    38.61000000    12.78000000
   C     50.03000000    38.26000000    11.32000000
   O     50.96000000    38.82000000    10.71000000
   O     49.29000000    37.55000000    10.62000000
   H     50.27000000    39.97000000    15.62000000
   H     49.37000000    38.09000000    15.44000000
   H     50.09000000    36.73000000    13.56000000
   H     51.59000000    37.59000000    13.52000000
   H     50.13000000    39.62000000    12.92000000
   H     48.66000000    38.59000000    12.95000000
   N     51.78000000    36.96000000    17.11000000
   C     52.79000000    36.03000000    17.58000000
   H     53.66600000    36.58500000    17.91600000
   H     52.39000000    35.44600000    18.40900000
   H     53.07500000    35.36100000    16.76800000
   H     51.82000000    37.90000000    17.48000000
  Ca     50.58000000    38.02000000     8.39000000
   O     49.78000000    38.61000000     5.87000000
   H     49.43000000    39.29000000     5.30000000
   H     49.93000000    37.86000000     5.29000000
   O     52.89000000    38.68000000     7.17000000
   H     53.01000000    39.45000000     6.61000000
   H     53.54000000    38.06000000     6.87000000
   O     50.76000000    40.63000000     8.18000000
   H     51.52000000    41.10000000     7.85000000
   H     50.06000000    41.29000000     8.19000000
   O     48.01000000    39.23000000     8.45000000
   H     47.49000000    39.56000000     9.19000000
   H     47.38000000    39.15000000     7.73000000

Ca 1.00



