%chk=loop3.holoCaM-CaMKII.run74.water2.chk
%nprocshared=20
%mem=10GB
%nosave
#b3lyp/svp scf=(tight,noincore,xqc) Test 
#IOP(5/87=12) Density=Current Pop=(MK,readradii) iop(6/33=2) iop(6/42=6)

loop3.holoCaM-CaMKII.run74.water2 

   0  1 
   C     26.27000000    32.72000000   100.82600000
   C     26.62000000    31.39000000   100.17600000
   O     27.39000000    31.41000000    99.21600000
   H     25.27300000    32.65900000   101.26300000
   H     26.99600000    32.94500000   101.60700000
   H     26.28900000    33.50900000   100.07400000
   N     26.20000000    30.27000000   100.75600000
   C     26.42000000    28.97000000   100.15600000
   C     25.59000000    28.81000000    98.89600000
   O     24.39000000    28.57000000    98.95600000
   C     26.12000000    27.86000000   101.15600000
   C     26.60000000    26.51000000   100.63600000
   O     26.40000000    25.58000000   101.44600000
   O     26.98000000    26.37000000    99.44600000
   H     25.55000000    30.38000000   101.52600000
   H     27.48000000    28.82000000    99.95600000
   H     25.04000000    27.70000000   101.25600000
   H     26.69000000    28.07000000   102.05600000
   N     26.21000000    28.83000000    97.70600000
   C     25.55000000    28.98000000    96.42600000
   C     24.74000000    27.79000000    95.93600000
   O     23.73000000    28.01000000    95.27600000
   C     26.55000000    29.34000000    95.32600000
   C     25.90000000    29.91000000    94.06600000
   C     26.92000000    30.35000000    93.02600000
   C     26.34000000    30.65000000    91.64600000
   N     27.37000000    31.32000000    90.84600000
   H     27.18000000    29.11000000    97.68600000
   H     24.77000000    29.73000000    96.57600000
   H     27.10000000    28.44000000    95.05600000
   H     27.35000000    29.97000000    95.70600000
   H     25.22000000    30.75000000    94.24600000
   H     25.36000000    29.10000000    93.59600000
   H     27.72000000    29.62000000    92.92600000
   H     27.35000000    31.28000000    93.39600000
   H     25.46000000    31.27000000    91.82600000
   H     26.02000000    29.69000000    91.22600000
   H     26.94000000    31.62000000    89.98600000
   H     27.90000000    32.01000000    91.34600000
   H     27.96000000    30.58000000    90.50600000
   N     25.08000000    26.58000000    96.40600000
   C     24.33000000    25.37000000    96.14600000
   C     23.66000000    24.81000000    97.39600000
   O     22.94000000    23.82000000    97.32600000
   C     25.20000000    24.33000000    95.44600000
   C     26.53000000    23.82000000    95.97600000
   O     26.79000000    24.14000000    97.15600000
   O     27.25000000    22.98000000    95.39600000
   H     25.92000000    26.52000000    96.95600000
   H     23.55000000    25.60000000    95.42600000
   H     25.47000000    24.70000000    94.45600000
   H     24.55000000    23.47000000    95.32600000
   N     23.81000000    25.48000000    98.54600000
   C     23.36000000    25.02000000    99.84600000
   C     23.80000000    23.64000000   100.30600000
   O     23.11000000    23.02000000   101.10600000
   H     24.25000000    26.39000000    98.57600000
   H     22.27000000    25.11000000    99.83600000
   H     23.69000000    25.76000000   100.56600000
   N     24.92000000    23.11000000    99.79600000
   C     25.54000000    21.86000000   100.17600000
   C     26.26000000    21.88000000   101.51600000
   O     26.92000000    20.90000000   101.86600000
   C     26.43000000    21.32000000    99.06600000
   C     27.91000000    21.68000000    99.09600000
   N     28.81000000    20.75000000    98.76600000
   O     28.34000000    22.76000000    99.48600000
   H     25.37000000    23.57000000    99.01600000
   H     24.74000000    21.12000000   100.25600000
   H     26.06000000    21.48000000    98.04600000
   H     26.43000000    20.24000000    99.13600000
   H     28.37000000    19.93000000    98.38600000
   H     29.80000000    20.94000000    98.71600000
   N     26.05000000    22.93000000   102.30600000
   C     26.57000000    22.86000000   103.65600000
   C     28.05000000    23.21000000   103.80600000
   O     28.59000000    23.04000000   104.89600000
   H     25.43000000    23.68000000   102.00600000
   H     26.44000000    21.88000000   104.10600000
   H     25.98000000    23.51000000   104.29600000
   N     28.65000000    23.82000000   102.78600000
   C     29.93000000    24.49000000   102.91600000
   C     29.97000000    25.58000000   101.85600000
   O     29.36000000    25.54000000   100.79600000
   C     31.01000000    23.46000000   102.61600000
   C     30.98000000    22.28000000   103.54600000
   C     31.69000000    22.31000000   104.75600000
   C     30.28000000    21.13000000   103.15600000
   C     31.69000000    21.18000000   105.57600000
   C     30.28000000    20.00000000   103.98600000
   C     30.98000000    20.01000000   105.20600000
   O     31.06000000    18.83000000   105.88600000
   H     28.10000000    24.03000000   101.96600000
   H     29.97000000    24.85000000   103.94600000
   H     31.95000000    23.98000000   102.83600000
   H     31.05000000    23.32000000   101.53600000
   H     32.18000000    23.21000000   105.11600000
   H     29.79000000    21.16000000   102.19600000
   H     32.14000000    21.20000000   106.55600000
   H     29.77000000    19.14000000   103.58600000
   H     31.48000000    18.98000000   106.73600000
   N     30.66000000    26.67000000   102.22600000
   C     31.02000000    27.75000000   101.32600000
   C     32.47000000    27.71000000   100.85600000
   O     33.41000000    27.45000000   101.60600000
   C     30.73000000    29.09000000   102.00600000
   C     29.41000000    29.17000000   102.76600000
   C     30.68000000    30.14000000   100.90600000
   C     29.51000000    30.12000000   103.95600000
   H     31.06000000    26.57000000   103.14600000
   H     30.46000000    27.74000000   100.39600000
   H     31.55000000    29.18000000   102.71600000
   H     29.06000000    28.21000000   103.12600000
   H     28.71000000    29.59000000   102.04600000
   H     29.81000000    29.95000000   100.27600000
   H     30.53000000    31.16000000   101.25600000
   H     31.56000000    30.09000000   100.25600000
   H     29.91000000    31.12000000   103.78600000
   H     28.55000000    30.34000000   104.41600000
   H     30.20000000    29.61000000   104.61600000
   N     32.68000000    27.82000000    99.54600000
   C     33.98000000    28.04000000    98.95600000
   C     34.27000000    29.44000000    98.42600000
   O     33.33000000    30.23000000    98.44600000
   C     34.25000000    26.98000000    97.89600000
   O     33.23000000    26.78000000    96.93600000
   H     31.86000000    28.01000000    98.98600000
   H     34.75000000    27.90000000    99.71600000
   H     34.38000000    25.97000000    98.30600000
   H     35.17000000    27.27000000    97.38600000
   H     32.36000000    26.62000000    97.29600000
   N     35.52000000    29.64000000    98.02600000
   C     35.98000000    31.00000000    97.80600000
   C     35.17000000    31.73000000    96.74600000
   O     34.79000000    32.86000000    97.03600000
   C     37.47000000    31.13000000    97.47600000
   H     36.13000000    28.84000000    97.91600000
   H     35.83000000    31.54000000    98.74600000
   H     38.10000000    30.50000000    98.11600000
   H     37.78000000    30.90000000    96.45600000
   H     37.79000000    32.15000000    97.67600000
   N     34.95000000    31.18000000    95.55600000
   C     34.18000000    31.72000000    94.45600000
   C     32.72000000    31.97000000    94.79600000
   O     32.16000000    33.00000000    94.42600000
   C     34.21000000    30.76000000    93.26600000
   H     35.31000000    30.24000000    95.42600000
   H     34.57000000    32.71000000    94.20600000
   H     33.93000000    29.74000000    93.53600000
   H     33.54000000    31.00000000    92.44600000
   H     35.22000000    30.77000000    92.84600000
   N     32.14000000    31.12000000    95.64600000
   C     30.78000000    31.20000000    96.14600000
   C     30.65000000    32.46000000    96.98600000
   O     29.73000000    33.25000000    96.79600000
   C     30.36000000    29.92000000    96.87600000
   C     30.43000000    28.67000000    95.99600000
   C     29.93000000    27.44000000    96.73600000
   O     28.86000000    26.90000000    96.37600000
   O     30.54000000    26.99000000    97.72600000
   H     32.64000000    30.28000000    95.89600000
   H     30.15000000    31.26000000    95.26600000
   H     29.33000000    29.95000000    97.21600000
   H     30.96000000    29.69000000    97.75600000
   H     31.47000000    28.63000000    95.68600000
   H     29.83000000    28.88000000    95.10600000
   N     31.61000000    32.70000000    97.88600000
   C     31.76000000    33.98000000    98.53600000
   H     32.54700000    34.54900000    98.04000000
   H     30.82100000    34.53100000    98.47600000
   H     32.02600000    33.82800000    99.58200000
   H     32.32000000    31.99000000    98.07600000
  Ca     28.83000000    25.00000000    98.35000000
   O     31.26000000    24.01000000    98.46000000
   H     31.50000000    23.28000000    97.88000000
   H     32.08000000    24.26000000    98.88000000
   O     29.64000000    23.55000000    96.25000000
   H     30.08000000    24.04000000    95.56000000
   H     28.91000000    23.11000000    95.81000000

Ca 1.00



