%chk=loop4.holoCaM.run8.water2.chk
%nprocshared=20
%mem=10GB
%nosave
#b3lyp/svp scf=(tight,noincore,xqc) Test 
#IOP(5/87=12) Density=Current Pop=(MK,readradii) iop(6/33=2) iop(6/42=6)

loop4.holoCaM.run8.water2 

   -3  1 
   C     23.12000000    31.62000000    32.16000000
   C     24.27000000    31.07000000    32.99000000
   O     24.99000000    30.27000000    32.39000000
   H     22.29500000    31.89100000    32.81800000
   H     23.45400000    32.50300000    31.61500000
   H     22.78600000    30.86100000    31.45300000
   N     24.38000000    31.30000000    34.30000000
   C     25.27000000    30.56000000    35.17000000
   C     24.73000000    29.15000000    35.32000000
   O     23.55000000    28.90000000    35.54000000
   C     25.34000000    31.25000000    36.53000000
   C     26.16000000    30.40000000    37.49000000
   O     27.29000000    29.97000000    37.17000000
   O     25.54000000    30.21000000    38.56000000
   H     23.82000000    31.98000000    34.80000000
   H     26.29000000    30.58000000    34.79000000
   H     24.34000000    31.38000000    36.93000000
   H     25.87000000    32.20000000    36.45000000
   N     25.65000000    28.21000000    35.09000000
   C     25.41000000    26.80000000    35.28000000
   C     26.21000000    26.18000000    36.41000000
   O     25.85000000    25.06000000    36.78000000
   C     25.49000000    26.19000000    33.88000000
   C     24.42000000    26.63000000    32.89000000
   C     25.66000000    24.67000000    33.82000000
   C     23.06000000    26.13000000    33.35000000
   H     26.57000000    28.50000000    34.79000000
   H     24.37000000    26.62000000    35.54000000
   H     26.42000000    26.62000000    33.51000000
   H     24.62000000    26.25000000    31.88000000
   H     24.38000000    27.72000000    32.83000000
   H     24.87000000    24.14000000    34.36000000
   H     25.79000000    24.36000000    32.78000000
   H     26.65000000    24.50000000    34.24000000
   H     23.09000000    25.04000000    33.33000000
   H     22.57000000    26.52000000    34.24000000
   H     22.39000000    26.33000000    32.51000000
   N     27.13000000    26.92000000    37.03000000
   C     27.92000000    26.55000000    38.19000000
   C     27.18000000    26.59000000    39.52000000
   O     27.45000000    25.87000000    40.48000000
   C     29.22000000    27.36000000    38.22000000
   C     30.06000000    27.01000000    37.00000000
   O     30.47000000    25.84000000    36.84000000
   O     30.35000000    27.97000000    36.26000000
   H     27.24000000    27.89000000    36.77000000
   H     28.22000000    25.51000000    38.06000000
   H     29.75000000    27.05000000    39.12000000
   H     28.86000000    28.38000000    38.29000000
   N     26.24000000    27.54000000    39.62000000
   C     25.73000000    28.06000000    40.87000000
   C     26.62000000    29.01000000    41.65000000
   O     26.46000000    29.10000000    42.87000000
   H     26.10000000    27.97000000    38.71000000
   H     25.59000000    27.23000000    41.57000000
   H     24.71000000    28.45000000    40.81000000
   N     27.60000000    29.64000000    41.00000000
   C     28.44000000    30.69000000    41.53000000
   C     27.78000000    32.06000000    41.41000000
   O     28.20000000    32.95000000    42.14000000
   C     29.84000000    30.60000000    40.94000000
   C     29.99000000    30.81000000    39.44000000
   O     29.47000000    31.82000000    38.94000000
   O     30.57000000    30.00000000    38.68000000
   H     27.71000000    29.30000000    40.05000000
   H     28.48000000    30.52000000    42.61000000
   H     30.21000000    29.61000000    41.23000000
   H     30.50000000    31.26000000    41.50000000
   N     26.75000000    32.19000000    40.57000000
   C     25.98000000    33.41000000    40.45000000
   C     26.63000000    34.42000000    39.51000000
   O     26.25000000    35.59000000    39.55000000
   H     26.49000000    31.44000000    39.95000000
   H     25.82000000    33.81000000    41.45000000
   H     25.03000000    33.13000000    40.02000000
   N     27.67000000    34.08000000    38.76000000
   C     28.32000000    34.83000000    37.70000000
   C     28.40000000    34.07000000    36.39000000
   O     28.37000000    32.84000000    36.42000000
   C     29.73000000    35.21000000    38.12000000
   C     29.63000000    36.32000000    39.17000000
   C     30.95000000    36.97000000    39.53000000
   N     31.96000000    36.23000000    39.98000000
   O     31.08000000    38.18000000    39.36000000
   H     28.13000000    33.18000000    38.86000000
   H     27.77000000    35.76000000    37.56000000
   H     30.26000000    35.69000000    37.29000000
   H     30.29000000    34.31000000    38.38000000
   H     29.24000000    35.88000000    40.09000000
   H     28.97000000    37.10000000    38.79000000
   H     31.84000000    35.27000000    40.29000000
   H     32.85000000    36.71000000    39.97000000
   N     28.44000000    34.83000000    35.29000000
   C     28.67000000    34.33000000    33.95000000
   C     30.09000000    34.58000000    33.47000000
   O     30.64000000    35.67000000    33.61000000
   C     27.63000000    34.75000000    32.92000000
   C     26.26000000    34.25000000    33.39000000
   C     27.76000000    36.24000000    32.65000000
   H     28.48000000    35.84000000    35.32000000
   H     28.48000000    33.26000000    33.87000000
   H     27.74000000    34.30000000    31.94000000
   H     26.30000000    33.16000000    33.41000000
   H     25.80000000    34.71000000    34.26000000
   H     25.47000000    34.51000000    32.69000000
   H     26.84000000    36.69000000    32.25000000
   H     27.87000000    36.68000000    33.64000000
   H     28.71000000    36.48000000    32.18000000
   N     30.76000000    33.53000000    32.97000000
   C     31.91000000    33.58000000    32.09000000
   C     31.56000000    33.66000000    30.61000000
   O     30.37000000    33.82000000    30.33000000
   C     32.82000000    32.41000000    32.46000000
   C     32.69000000    31.21000000    31.53000000
   N     31.58000000    30.50000000    31.70000000
   O     33.47000000    30.93000000    30.62000000
   H     30.33000000    32.62000000    33.03000000
   H     32.41000000    34.54000000    32.18000000
   H     32.60000000    32.02000000    33.46000000
   H     33.85000000    32.73000000    32.60000000
   H     31.06000000    30.53000000    32.57000000
   H     31.60000000    29.64000000    31.17000000
   N     32.47000000    33.69000000    29.63000000
   C     32.15000000    33.67000000    28.22000000
   C     31.28000000    32.50000000    27.76000000
   O     30.30000000    32.73000000    27.05000000
   C     33.52000000    33.72000000    27.54000000
   C     33.49000000    33.69000000    26.03000000
   C     33.42000000    34.92000000    25.38000000
   C     33.33000000    32.47000000    25.36000000
   C     33.44000000    34.89000000    23.98000000
   C     33.16000000    32.46000000    23.97000000
   C     33.29000000    33.68000000    23.28000000
   O     33.03000000    33.75000000    21.94000000
   H     33.44000000    33.56000000    29.89000000
   H     31.61000000    34.57000000    27.94000000
   H     34.03000000    32.83000000    27.91000000
   H     34.04000000    34.56000000    28.00000000
   H     33.39000000    35.89000000    25.86000000
   H     33.41000000    31.54000000    25.91000000
   H     33.49000000    35.79000000    23.38000000
   H     32.98000000    31.54000000    23.44000000
   H     33.07000000    32.86000000    21.58000000
   N     31.55000000    31.28000000    28.20000000
   C     30.80000000    30.05000000    28.02000000
   C     29.37000000    30.11000000    28.54000000
   O     28.52000000    29.38000000    28.05000000
   C     31.53000000    28.80000000    28.50000000
   C     32.66000000    28.28000000    27.62000000
   C     33.25000000    26.93000000    27.98000000
   O     33.63000000    26.71000000    29.16000000
   O     33.39000000    26.08000000    27.08000000
   H     32.34000000    31.17000000    28.82000000
   H     30.73000000    29.95000000    26.94000000
   H     30.76000000    28.04000000    28.49000000
   H     31.90000000    28.99000000    29.51000000
   H     33.41000000    29.06000000    27.49000000
   H     32.22000000    28.11000000    26.64000000
   N     29.03000000    31.08000000    29.39000000
   C     27.65000000    31.30000000    29.77000000
   C     27.02000000    32.53000000    29.13000000
   O     25.86000000    32.55000000    28.72000000
   C     27.73000000    31.39000000    31.30000000
   C     28.34000000    30.18000000    31.99000000
   C     28.75000000    30.38000000    33.45000000
   O     29.58000000    31.27000000    33.71000000
   O     28.36000000    29.53000000    34.28000000
   H     29.69000000    31.69000000    29.84000000
   H     27.00000000    30.45000000    29.55000000
   H     26.75000000    31.67000000    31.68000000
   H     28.47000000    32.19000000    31.45000000
   H     29.13000000    29.79000000    31.35000000
   H     27.58000000    29.40000000    32.04000000
   N     27.84000000    33.52000000    28.78000000
   C     27.41000000    34.67000000    28.01000000
   H     26.50600000    35.08700000    28.45500000
   H     28.19700000    35.42400000    28.01200000
   H     27.20200000    34.36400000    26.98500000
   H     28.81000000    33.42000000    29.02000000
  Ca     29.68000000    30.62000000    36.29000000
   O     31.83000000    29.50000000    34.93000000
   H     31.50000000    28.63000000    35.15000000
   H     32.79000000    29.40000000    34.92000000
   O     31.75000000    32.28000000    36.82000000
   H     32.69000000    32.42000000    36.76000000
   H     31.55000000    32.41000000    37.75000000

Ca 1.00



