%chk=loop2.holoCaM-CaMKII.run13.water2.chk
%nprocshared=20
%mem=10GB
%nosave
#b3lyp/svp scf=(tight,noincore,xqc) Test 
#IOP(5/87=12) Density=Current Pop=(MK,readradii) iop(6/33=2) iop(6/42=6)

loop2.holoCaM-CaMKII.run13.water2 

   -2  1 
   C     73.75000000    76.23000000    22.66000000
   C     74.77000000    76.97000000    21.80000000
   O     75.85000000    77.30000000    22.28000000
   H     72.81900000    76.11900000    22.10400000
   H     74.13800000    75.24500000    22.91800000
   H     73.56200000    76.79800000    23.57100000
   N     74.41000000    77.29000000    20.55000000
   C     75.31000000    77.77000000    19.52000000
   C     75.97000000    79.10000000    19.88000000
   O     75.31000000    79.94000000    20.49000000
   C     74.50000000    77.99000000    18.25000000
   C     75.30000000    78.18000000    16.97000000
   O     76.55000000    78.13000000    17.02000000
   O     74.70000000    78.34000000    15.89000000
   H     73.41000000    77.26000000    20.45000000
   H     76.13000000    77.06000000    19.41000000
   H     73.86000000    78.86000000    18.39000000
   H     73.81000000    77.15000000    18.14000000
   N     77.24000000    79.31000000    19.53000000
   C     78.00000000    80.54000000    19.71000000
   C     78.47000000    81.17000000    18.41000000
   O     79.10000000    82.23000000    18.39000000
   C     79.14000000    80.36000000    20.70000000
   H     77.66000000    78.50000000    19.10000000
   H     77.34000000    81.24000000    20.21000000
   H     79.59000000    81.33000000    20.94000000
   H     78.78000000    79.94000000    21.64000000
   H     80.01000000    79.87000000    20.25000000
   N     78.09000000    80.65000000    17.24000000
   C     78.64000000    81.10000000    15.98000000
   C     77.82000000    80.96000000    14.71000000
   O     78.05000000    81.74000000    13.78000000
   C     80.02000000    80.50000000    15.71000000
   C     80.08000000    79.07000000    15.19000000
   O     79.04000000    78.38000000    15.21000000
   O     81.18000000    78.67000000    14.75000000
   H     77.47000000    79.85000000    17.20000000
   H     78.84000000    82.16000000    16.09000000
   H     80.61000000    80.53000000    16.63000000
   H     80.46000000    81.04000000    14.87000000
   N     76.71000000    80.21000000    14.73000000
   C     75.92000000    79.95000000    13.54000000
   C     76.42000000    78.95000000    12.51000000
   O     75.80000000    78.77000000    11.47000000
   H     76.59000000    79.64000000    15.56000000
   H     75.77000000    80.88000000    12.99000000
   H     74.92000000    79.74000000    13.91000000
   N     77.43000000    78.13000000    12.80000000
   C     78.01000000    77.35000000    11.73000000
   C     77.16000000    76.15000000    11.33000000
   O     77.41000000    75.54000000    10.29000000
   C     79.44000000    76.94000000    12.06000000
   C     79.60000000    75.97000000    13.22000000
   N     80.79000000    75.45000000    13.51000000
   O     78.63000000    75.56000000    13.86000000
   H     78.05000000    78.27000000    13.59000000
   H     78.08000000    77.98000000    10.84000000
   H     80.01000000    77.84000000    12.28000000
   H     79.94000000    76.44000000    11.24000000
   H     81.44000000    75.65000000    12.76000000
   H     80.96000000    74.83000000    14.29000000
   N     76.09000000    75.84000000    12.07000000
   C     75.13000000    74.79000000    11.84000000
   C     75.56000000    73.39000000    12.24000000
   O     74.95000000    72.39000000    11.85000000
   H     76.02000000    76.32000000    12.96000000
   H     74.76000000    74.76000000    10.81000000
   H     74.31000000    75.10000000    12.48000000
   N     76.63000000    73.34000000    13.04000000
   C     77.09000000    72.14000000    13.72000000
   C     77.40000000    72.43000000    15.18000000
   O     77.71000000    73.56000000    15.55000000
   C     78.36000000    71.55000000    13.12000000
   C     78.28000000    70.64000000    11.90000000
   O     79.38000000    72.49000000    12.84000000
   H     77.06000000    74.22000000    13.28000000
   H     76.41000000    71.29000000    13.66000000
   H     78.78000000    70.96000000    13.93000000
   H     79.51000000    73.03000000    13.62000000
   H     77.87000000    71.18000000    11.05000000
   H     79.21000000    70.07000000    11.78000000
   H     77.56000000    69.84000000    12.04000000
   N     77.14000000    71.43000000    16.01000000
   C     77.52000000    71.47000000    17.41000000
   C     79.03000000    71.32000000    17.48000000
   O     79.59000000    70.31000000    17.05000000
   C     76.80000000    70.47000000    18.30000000
   C     75.29000000    70.52000000    18.04000000
   C     77.16000000    70.82000000    19.75000000
   C     74.50000000    69.40000000    18.69000000
   H     76.99000000    70.51000000    15.62000000
   H     77.36000000    72.48000000    17.80000000
   H     77.13000000    69.46000000    18.08000000
   H     75.12000000    70.32000000    16.98000000
   H     74.83000000    71.44000000    18.41000000
   H     76.55000000    70.23000000    20.43000000
   H     78.19000000    70.48000000    19.88000000
   H     77.12000000    71.89000000    19.92000000
   H     73.44000000    69.64000000    18.58000000
   H     74.80000000    68.45000000    18.26000000
   H     74.66000000    69.28000000    19.76000000
   N     79.67000000    72.40000000    17.94000000
   C     81.08000000    72.36000000    18.27000000
   C     81.37000000    71.95000000    19.71000000
   O     80.55000000    72.19000000    20.59000000
   C     81.56000000    73.80000000    18.08000000
   C     81.14000000    74.42000000    16.76000000
   O     80.54000000    75.52000000    16.69000000
   O     81.47000000    73.85000000    15.70000000
   H     79.16000000    73.26000000    18.01000000
   H     81.56000000    71.74000000    17.51000000
   H     82.64000000    73.84000000    18.23000000
   H     81.16000000    74.35000000    18.93000000
   N     82.55000000    71.47000000    20.10000000
   C     82.77000000    70.83000000    21.38000000
   C     82.61000000    71.77000000    22.57000000
   O     82.04000000    71.41000000    23.59000000
   C     84.13000000    70.15000000    21.37000000
   C     84.41000000    69.38000000    22.64000000
   C     85.66000000    69.44000000    23.28000000
   C     83.43000000    68.57000000    23.22000000
   C     85.88000000    68.72000000    24.46000000
   C     83.69000000    67.74000000    24.33000000
   C     84.91000000    67.88000000    25.01000000
   H     83.31000000    71.47000000    19.43000000
   H     81.96000000    70.11000000    21.53000000
   H     84.96000000    70.81000000    21.12000000
   H     84.07000000    69.38000000    20.60000000
   H     86.52000000    69.96000000    22.89000000
   H     82.43000000    68.53000000    22.82000000
   H     86.89000000    68.69000000    24.86000000
   H     82.95000000    67.14000000    24.82000000
   H     85.13000000    67.38000000    25.94000000
   N     83.09000000    73.02000000    22.51000000
   C     82.82000000    74.05000000    23.48000000
   C     81.36000000    74.38000000    23.73000000
   O     81.04000000    74.62000000    24.89000000
   C     83.60000000    75.28000000    23.03000000
   C     84.78000000    74.69000000    22.26000000
   C     84.07000000    73.53000000    21.56000000
   H     83.32000000    73.71000000    24.39000000
   H     83.05000000    75.88000000    22.30000000
   H     84.06000000    75.84000000    23.84000000
   H     85.26000000    75.41000000    21.60000000
   H     85.49000000    74.30000000    22.99000000
   H     83.57000000    73.93000000    20.68000000
   H     84.79000000    72.74000000    21.34000000
   N     80.49000000    74.22000000    22.73000000
   C     79.07000000    74.46000000    22.87000000
   C     78.45000000    73.25000000    23.57000000
   O     77.51000000    73.38000000    24.35000000
   C     78.48000000    74.68000000    21.48000000
   C     79.16000000    75.84000000    20.77000000
   C     78.63000000    76.05000000    19.36000000
   O     78.73000000    77.17000000    18.80000000
   O     78.13000000    75.10000000    18.71000000
   H     80.78000000    73.88000000    21.82000000
   H     78.88000000    75.26000000    23.58000000
   H     77.41000000    74.86000000    21.62000000
   H     78.51000000    73.76000000    20.90000000
   H     80.24000000    75.76000000    20.68000000
   H     79.02000000    76.78000000    21.31000000
   N     78.85000000    72.02000000    23.26000000
   C     78.58000000    70.81000000    24.01000000
   H     77.57700000    70.45400000    23.77500000
   H     79.30800000    70.04500000    23.74100000
   H     78.65000000    71.02000000    25.07700000
   H     79.55000000    71.95000000    22.53000000
  Ca     78.18000000    76.30000000    16.36000000
   O     75.74000000    75.14000000    17.58000000
   H     76.44000000    74.90000000    18.19000000
   H     74.95000000    74.77000000    17.97000000
   O     75.89000000    76.18000000    14.93000000
   H     75.30000000    75.43000000    15.05000000
   H     75.31000000    76.95000000    14.98000000

Ca 1.00



