%chk=loop4.apoCaM-CA-Ng.Init293.run51.water3.chk
%nprocshared=20
%mem=10GB
%nosave
#b3lyp/svp scf=(tight,noincore,xqc) Test 
#IOP(5/87=12) Density=Current Pop=(MK,readradii) iop(6/33=2) iop(6/42=6)

loop4.apoCaM-CA-Ng.Init293.run51.water3 

   -3  1 
   C     34.18000000    55.13000000    66.45000000
   C     33.91000000    55.23000000    64.95000000
   O     33.31000000    56.21000000    64.52000000
   H     34.94800000    55.85100000    66.72900000
   H     33.26400000    55.34500000    67.00000000
   H     34.52200000    54.12400000    66.69200000
   N     34.27000000    54.22000000    64.16000000
   C     34.01000000    53.97000000    62.75000000
   C     34.48000000    54.95000000    61.69000000
   O     34.30000000    54.66000000    60.51000000
   C     32.61000000    53.42000000    62.51000000
   C     31.50000000    54.36000000    62.97000000
   O     31.49000000    55.47000000    62.41000000
   O     30.48000000    54.01000000    63.61000000
   H     34.78000000    53.52000000    64.67000000
   H     34.71000000    53.14000000    62.65000000
   H     32.52000000    52.42000000    62.94000000
   H     32.52000000    53.19000000    61.45000000
   N     35.03000000    56.12000000    62.03000000
   C     35.24000000    57.24000000    61.14000000
   C     33.93000000    57.73000000    60.53000000
   O     32.91000000    57.78000000    61.22000000
   C     35.84000000    58.42000000    61.91000000
   C     37.33000000    58.20000000    62.12000000
   C     35.35000000    58.67000000    63.33000000
   C     38.18000000    58.30000000    60.86000000
   H     35.15000000    56.26000000    63.02000000
   H     35.91000000    56.97000000    60.33000000
   H     35.72000000    59.34000000    61.33000000
   H     37.51000000    57.19000000    62.50000000
   H     37.75000000    58.86000000    62.87000000
   H     34.26000000    58.72000000    63.32000000
   H     35.64000000    57.77000000    63.86000000
   H     35.90000000    59.42000000    63.92000000
   H     38.07000000    57.39000000    60.27000000
   H     37.94000000    59.22000000    60.32000000
   H     39.24000000    58.25000000    61.13000000
   N     33.96000000    58.17000000    59.28000000
   C     32.75000000    58.50000000    58.54000000
   C     31.67000000    57.43000000    58.58000000
   O     31.88000000    56.23000000    58.38000000
   C     33.03000000    58.69000000    57.05000000
   C     33.82000000    57.56000000    56.41000000
   O     34.98000000    57.31000000    56.79000000
   O     33.23000000    56.93000000    55.50000000
   H     34.80000000    58.10000000    58.73000000
   H     32.32000000    59.43000000    58.90000000
   H     33.59000000    59.61000000    56.90000000
   H     32.07000000    58.86000000    56.57000000
   N     30.40000000    57.76000000    58.83000000
   C     29.85000000    59.09000000    59.00000000
   C     30.14000000    59.69000000    60.37000000
   O     30.71000000    59.10000000    61.28000000
   H     29.75000000    56.98000000    58.82000000
   H     28.76000000    59.12000000    58.94000000
   H     30.30000000    59.70000000    58.22000000
   N     29.72000000    60.92000000    60.70000000
   C     28.90000000    61.77000000    59.87000000
   C     29.59000000    62.24000000    58.60000000
   O     29.04000000    62.07000000    57.51000000
   C     28.24000000    62.81000000    60.77000000
   C     27.14000000    63.63000000    60.11000000
   O     25.97000000    63.18000000    60.20000000
   O     27.43000000    64.59000000    59.38000000
   H     29.89000000    61.27000000    61.64000000
   H     28.11000000    61.15000000    59.43000000
   H     29.06000000    63.50000000    60.91000000
   H     27.93000000    62.33000000    61.70000000
   N     30.89000000    62.55000000    58.54000000
   C     31.80000000    62.88000000    59.61000000
   C     33.09000000    63.53000000    59.15000000
   O     33.49000000    63.52000000    57.98000000
   H     31.22000000    62.79000000    57.61000000
   H     32.11000000    61.99000000    60.16000000
   H     31.23000000    63.51000000    60.31000000
   N     33.59000000    64.30000000    60.12000000
   C     34.51000000    65.40000000    59.88000000
   C     35.84000000    65.09000000    60.56000000
   O     36.60000000    66.02000000    60.83000000
   C     33.91000000    66.76000000    60.21000000
   C     32.87000000    67.16000000    59.16000000
   C     32.64000000    68.66000000    59.05000000
   N     31.97000000    69.19000000    60.07000000
   O     33.04000000    69.40000000    58.16000000
   H     33.16000000    64.15000000    61.02000000
   H     34.75000000    65.38000000    58.82000000
   H     34.66000000    67.53000000    60.35000000
   H     33.43000000    66.75000000    61.19000000
   H     31.94000000    66.71000000    59.49000000
   H     33.17000000    66.83000000    58.17000000
   H     31.51000000    68.55000000    60.71000000
   H     31.83000000    70.19000000    60.05000000
   N     36.12000000    63.84000000    60.93000000
   C     37.40000000    63.56000000    61.54000000
   C     37.11000000    63.27000000    63.01000000
   O     36.10000000    62.62000000    63.26000000
   C     38.17000000    62.41000000    60.90000000
   C     39.59000000    62.19000000    61.43000000
   C     38.37000000    62.63000000    59.40000000
   H     35.46000000    63.09000000    60.76000000
   H     38.02000000    64.45000000    61.57000000
   H     37.65000000    61.46000000    61.05000000
   H     40.10000000    61.30000000    61.06000000
   H     40.22000000    63.08000000    61.34000000
   H     39.52000000    62.03000000    62.50000000
   H     38.74000000    63.62000000    59.17000000
   H     38.98000000    61.81000000    59.01000000
   H     37.42000000    62.74000000    58.88000000
   N     37.97000000    63.62000000    63.97000000
   C     37.77000000    63.57000000    65.40000000
   C     36.73000000    64.60000000    65.82000000
   O     36.18000000    64.45000000    66.91000000
   C     39.11000000    63.77000000    66.10000000
   C     38.99000000    63.50000000    67.59000000
   N     39.30000000    64.50000000    68.43000000
   O     38.54000000    62.43000000    67.99000000
   H     38.87000000    63.99000000    63.69000000
   H     37.37000000    62.58000000    65.65000000
   H     39.43000000    64.81000000    65.98000000
   H     39.75000000    63.07000000    65.57000000
   H     39.78000000    65.32000000    68.10000000
   H     39.34000000    64.25000000    69.41000000
   N     36.46000000    65.67000000    65.08000000
   C     35.42000000    66.66000000    65.28000000
   C     34.05000000    65.99000000    65.35000000
   O     33.60000000    65.26000000    64.47000000
   C     35.52000000    67.65000000    64.13000000
   C     34.53000000    68.79000000    64.17000000
   C     33.22000000    68.67000000    63.70000000
   C     35.07000000    70.05000000    64.48000000
   C     32.38000000    69.79000000    63.78000000
   C     34.22000000    71.15000000    64.54000000
   C     32.87000000    71.06000000    64.16000000
   O     32.16000000    72.23000000    64.13000000
   H     37.12000000    65.78000000    64.32000000
   H     35.64000000    67.17000000    66.22000000
   H     35.31000000    67.12000000    63.21000000
   H     36.51000000    68.09000000    64.28000000
   H     32.86000000    67.68000000    63.47000000
   H     36.13000000    70.23000000    64.55000000
   H     31.31000000    69.72000000    63.67000000
   H     34.64000000    72.13000000    64.75000000
   H     31.25000000    72.26000000    63.83000000
   N     33.25000000    66.25000000    66.39000000
   C     31.89000000    65.78000000    66.55000000
   C     31.75000000    64.26000000    66.59000000
   O     30.66000000    63.69000000    66.57000000
   C     30.96000000    66.43000000    65.53000000
   C     29.55000000    66.63000000    66.05000000
   C     28.70000000    67.56000000    65.19000000
   O     27.93000000    68.35000000    65.77000000
   O     28.76000000    67.39000000    63.95000000
   H     33.74000000    66.81000000    67.08000000
   H     31.61000000    66.18000000    67.52000000
   H     30.96000000    65.84000000    64.60000000
   H     31.47000000    67.37000000    65.34000000
   H     29.60000000    67.00000000    67.08000000
   H     29.07000000    65.66000000    66.18000000
   N     32.85000000    63.52000000    66.74000000
   C     32.93000000    62.19000000    67.32000000
   C     33.10000000    62.14000000    68.83000000
   O     33.38000000    61.11000000    69.44000000
   C     34.02000000    61.47000000    66.52000000
   C     33.83000000    61.21000000    65.03000000
   C     32.68000000    60.29000000    64.62000000
   O     32.43000000    60.25000000    63.39000000
   O     32.18000000    59.42000000    65.36000000
   H     33.75000000    63.97000000    66.65000000
   H     31.96000000    61.74000000    67.13000000
   H     34.23000000    60.55000000    67.06000000
   H     34.88000000    62.13000000    66.59000000
   H     34.79000000    60.86000000    64.67000000
   H     33.60000000    62.19000000    64.62000000
   N     32.99000000    63.33000000    69.42000000
   C     33.09000000    63.56000000    70.85000000
   H     33.53400000    64.53900000    71.03000000
   H     32.09500000    63.52600000    71.29500000
   H     33.71600000    62.78900000    71.30000000
   H     32.70000000    64.07000000    68.80000000
  Ca     31.31000000    57.89000000    63.44000000
   O     28.76000000    57.02000000    63.02000000
   H     27.91000000    57.46000000    62.92000000
   H     28.61000000    56.14000000    62.67000000
   O     30.27000000    56.91000000    65.90000000
   H     29.87000000    56.05000000    65.99000000
   H     30.09000000    57.34000000    66.74000000
   O     29.24000000    59.71000000    63.95000000
   H     28.29000000    59.78000000    63.99000000
   H     29.54000000    60.59000000    63.74000000

Ca 1.00



