%chk=loop3.apoCaM-CA-Ng.Init31.run43.water6.chk
%nprocshared=20
%mem=10GB
%nosave
#b3lyp/svp scf=(tight,noincore,xqc) Test 
#IOP(5/87=12) Density=Current Pop=(MK,readradii) iop(6/33=2) iop(6/42=6)

loop3.apoCaM-CA-Ng.Init31.run43.water6 

   0  1 
   C     99.39000000    33.99000000     5.87000000
   C    100.51000000    34.84000000     5.28000000
   O    100.24000000    35.82000000     4.59000000
   H     98.50100000    34.07600000     5.24500000
   H     99.70600000    32.94800000     5.90900000
   H     99.16000000    34.33900000     6.87700000
   N    101.76000000    34.41000000     5.45000000
   C    102.99000000    35.09000000     5.12000000
   C    103.68000000    34.66000000     3.83000000
   O    103.62000000    33.47000000     3.51000000
   C    104.02000000    35.05000000     6.25000000
   C    104.35000000    33.61000000     6.63000000
   O    105.50000000    33.12000000     6.60000000
   O    103.43000000    32.94000000     7.16000000
   H    101.89000000    33.54000000     5.95000000
   H    102.74000000    36.13000000     4.90000000
   H    103.62000000    35.53000000     7.14000000
   H    104.92000000    35.62000000     6.03000000
   N    104.49000000    35.47000000     3.15000000
   C    105.36000000    35.00000000     2.10000000
   C    104.68000000    34.55000000     0.81000000
   O    105.14000000    33.56000000     0.25000000
   C    106.23000000    36.19000000     1.71000000
   C    107.43000000    36.19000000     2.66000000
   C    108.40000000    37.32000000     2.31000000
   C    109.50000000    37.35000000     3.37000000
   N    110.31000000    38.57000000     3.25000000
   H    104.54000000    36.45000000     3.38000000
   H    106.00000000    34.15000000     2.36000000
   H    105.64000000    37.10000000     1.66000000
   H    106.63000000    36.11000000     0.70000000
   H    107.89000000    35.22000000     2.47000000
   H    107.16000000    36.32000000     3.71000000
   H    107.75000000    38.18000000     2.34000000
   H    108.74000000    37.20000000     1.28000000
   H    110.12000000    36.46000000     3.30000000
   H    108.94000000    37.39000000     4.31000000
   H    111.23000000    38.51000000     3.65000000
   H    110.47000000    38.86000000     2.29000000
   H    109.79000000    39.28000000     3.75000000
   N    103.66000000    35.23000000     0.28000000
   C    102.58000000    34.53000000    -0.39000000
   C    101.88000000    35.38000000    -1.45000000
   O    101.07000000    34.85000000    -2.20000000
   C    101.61000000    33.87000000     0.59000000
   C    100.90000000    34.86000000     1.51000000
   O     99.75000000    34.66000000     1.94000000
   O    101.44000000    35.98000000     1.64000000
   H    103.37000000    36.07000000     0.76000000
   H    102.99000000    33.69000000    -0.93000000
   H    102.17000000    33.28000000     1.32000000
   H    100.91000000    33.27000000     0.01000000
   N    102.21000000    36.66000000    -1.65000000
   C    101.71000000    37.54000000    -2.69000000
   C    102.79000000    37.86000000    -3.72000000
   O    103.71000000    37.10000000    -4.02000000
   H    102.90000000    37.03000000    -1.01000000
   H    101.34000000    38.43000000    -2.19000000
   H    100.87000000    37.02000000    -3.16000000
   N    102.61000000    38.95000000    -4.48000000
   C    101.62000000    39.98000000    -4.24000000
   C    101.92000000    40.97000000    -3.12000000
   O    103.09000000    41.23000000    -2.82000000
   C    101.42000000    40.80000000    -5.51000000
   C    100.92000000    39.83000000    -6.58000000
   N     99.61000000    39.64000000    -6.72000000
   O    101.67000000    39.09000000    -7.22000000
   H    103.17000000    39.06000000    -5.31000000
   H    100.66000000    39.53000000    -4.01000000
   H    102.33000000    41.33000000    -5.78000000
   H    100.60000000    41.51000000    -5.36000000
   H     98.95000000    40.10000000    -6.11000000
   H     99.32000000    38.85000000    -7.27000000
   N    100.95000000    41.54000000    -2.41000000
   C     99.51000000    41.45000000    -2.60000000
   C     98.75000000    40.26000000    -2.03000000
   O     99.34000000    39.25000000    -1.65000000
   H    101.26000000    42.05000000    -1.59000000
   H     99.25000000    41.54000000    -3.65000000
   H     99.19000000    42.32000000    -2.04000000
   N     97.44000000    40.30000000    -2.33000000
   C     96.58000000    39.15000000    -2.19000000
   C     96.44000000    38.33000000    -3.46000000
   O     96.60000000    38.85000000    -4.56000000
   C     95.18000000    39.58000000    -1.76000000
   C     95.20000000    39.95000000    -0.30000000
   C     94.57000000    39.15000000     0.66000000
   C     95.56000000    41.23000000     0.14000000
   C     94.44000000    39.54000000     2.00000000
   C     95.51000000    41.68000000     1.47000000
   C     94.90000000    40.81000000     2.40000000
   O     94.72000000    41.19000000     3.70000000
   H     97.06000000    41.12000000    -2.78000000
   H     97.11000000    38.45000000    -1.54000000
   H     94.52000000    38.72000000    -1.88000000
   H     94.76000000    40.32000000    -2.45000000
   H     94.21000000    38.16000000     0.44000000
   H     96.03000000    41.91000000    -0.55000000
   H     94.08000000    38.85000000     2.75000000
   H     95.88000000    42.67000000     1.70000000
   H     95.21000000    42.01000000     3.78000000
   N     96.04000000    37.07000000    -3.27000000
   C     95.77000000    36.16000000    -4.36000000
   C     94.30000000    35.82000000    -4.51000000
   O     93.89000000    35.21000000    -5.50000000
   C     96.64000000    34.90000000    -4.35000000
   C     98.12000000    35.29000000    -4.31000000
   C     96.40000000    33.94000000    -3.20000000
   C     98.69000000    36.31000000    -5.30000000
   H     95.99000000    36.68000000    -2.33000000
   H     96.04000000    36.71000000    -5.26000000
   H     96.64000000    34.40000000    -5.32000000
   H     98.72000000    34.39000000    -4.34000000
   H     98.35000000    35.79000000    -3.37000000
   H     96.43000000    34.45000000    -2.24000000
   H     95.40000000    33.52000000    -3.25000000
   H     97.14000000    33.13000000    -3.20000000
   H     99.78000000    36.22000000    -5.26000000
   H     98.38000000    36.00000000    -6.30000000
   H     98.36000000    37.33000000    -5.12000000
   N     93.43000000    36.27000000    -3.60000000
   C     91.98000000    36.22000000    -3.59000000
   C     91.35000000    34.84000000    -3.49000000
   O     90.17000000    34.61000000    -3.75000000
   C     91.47000000    37.07000000    -2.43000000
   O     91.99000000    36.60000000    -1.20000000
   H     93.89000000    36.58000000    -2.76000000
   H     91.59000000    36.60000000    -4.53000000
   H     90.38000000    37.02000000    -2.36000000
   H     91.92000000    38.05000000    -2.56000000
   H     92.91000000    36.34000000    -1.27000000
   N     92.15000000    33.82000000    -3.16000000
   C     91.65000000    32.51000000    -2.78000000
   C     92.33000000    32.02000000    -1.51000000
   O     93.54000000    32.15000000    -1.29000000
   C     91.72000000    31.52000000    -3.93000000
   H     93.12000000    34.01000000    -2.97000000
   H     90.62000000    32.65000000    -2.45000000
   H     91.36000000    32.02000000    -4.83000000
   H     92.72000000    31.15000000    -4.17000000
   H     91.22000000    30.60000000    -3.65000000
   N     91.53000000    31.30000000    -0.72000000
   C     91.88000000    30.46000000     0.41000000
   C     92.70000000    31.09000000     1.52000000
   O     93.38000000    30.42000000     2.28000000
   C     92.35000000    29.13000000    -0.18000000
   H     90.57000000    31.32000000    -1.03000000
   H     90.93000000    30.32000000     0.93000000
   H     91.73000000    28.74000000    -0.99000000
   H     93.28000000    29.35000000    -0.71000000
   H     92.56000000    28.45000000     0.65000000
   N     92.72000000    32.43000000     1.53000000
   C     93.41000000    33.21000000     2.53000000
   C     92.54000000    34.14000000     3.36000000
   O     92.82000000    34.53000000     4.49000000
   C     94.59000000    33.91000000     1.86000000
   C     94.01000000    35.01000000     0.97000000
   C     95.02000000    35.59000000    -0.02000000
   O     96.25000000    35.61000000     0.19000000
   O     94.59000000    36.16000000    -1.04000000
   H     92.15000000    32.93000000     0.86000000
   H     93.88000000    32.54000000     3.25000000
   H     95.10000000    33.20000000     1.21000000
   H     95.31000000    34.41000000     2.51000000
   H     93.68000000    35.89000000     1.51000000
   H     93.11000000    34.60000000     0.50000000
   N     91.36000000    34.50000000     2.85000000
   C     90.23000000    35.12000000     3.53000000
   H     89.36200000    34.46300000     3.46400000
   H     90.48200000    35.28500000     4.57800000
   H     89.99900000    36.07400000     3.05700000
   H     91.20000000    34.13000000     1.93000000
  Ca     99.49000000    37.31000000     2.49000000
   O     97.23000000    36.11000000     2.57000000
   H     96.41000000    36.41000000     2.97000000
   H     96.99000000    35.90000000     1.67000000
   O     98.61000000    36.86000000     0.04000000
   H     98.94000000    36.69000000    -0.84000000
   H     97.90000000    36.23000000     0.16000000
   O     97.95000000    39.42000000     1.81000000
   H     98.11000000    40.36000000     1.82000000
   H     97.02000000    39.34000000     1.60000000
   O     98.66000000    38.70000000     4.69000000
   H     97.76000000    38.49000000     4.93000000
   H     98.92000000    39.39000000     5.30000000
   O    100.98500000    38.87000000     0.59000000
   H    100.55500000    38.75000000    -0.26000000
   H    100.89500000    39.81000000     0.77000000
   O    101.58500000    38.58000000     3.61000000
   H    101.77500000    39.49000000     3.85000000
   H    102.43500000    38.23000000     3.33000000

Ca 1.00



