%chk=loop1.apoCaM-CA-Ng.Init31.run48.water4.chk
%nprocshared=20
%mem=10GB
%nosave
#b3lyp/svp scf=(tight,noincore,xqc) Test 
#IOP(5/87=12) Density=Current Pop=(MK,readradii) iop(6/33=2) iop(6/42=6)

loop1.apoCaM-CA-Ng.Init31.run48.water4 

   0  1 
   C     99.53000000    73.43000000    29.54000000
   C    100.06000000    74.86000000    29.64000000
   O    100.93000000    75.14000000    30.46000000
   H     98.57400000    73.43300000    29.01700000
   H    100.24300000    72.81500000    28.99000000
   H     99.39400000    73.02100000    30.54100000
   N     99.62000000    75.74000000    28.74000000
   C    100.22000000    77.02000000    28.40000000
   C     99.13000000    78.05000000    28.14000000
   O     97.95000000    77.77000000    27.92000000
   C    101.12000000    76.87000000    27.18000000
   C    102.09000000    78.01000000    26.92000000
   O    102.20000000    78.88000000    27.81000000
   O    102.64000000    78.13000000    25.81000000
   H     99.02000000    75.39000000    28.01000000
   H    100.81000000    77.39000000    29.24000000
   H    100.50000000    76.63000000    26.32000000
   H    101.69000000    75.95000000    27.35000000
   N     99.54000000    79.32000000    28.09000000
   C     98.62000000    80.42000000    27.93000000
   C     97.84000000    80.37000000    26.62000000
   O     96.63000000    80.58000000    26.65000000
   C     99.48000000    81.66000000    28.12000000
   C     98.66000000    82.95000000    28.18000000
   C     97.77000000    83.08000000    29.41000000
   C     96.97000000    84.37000000    29.55000000
   N     96.11000000    84.62000000    28.38000000
   H    100.52000000    79.41000000    28.34000000
   H     97.91000000    80.40000000    28.76000000
   H    100.16000000    81.62000000    27.28000000
   H    100.09000000    81.57000000    29.02000000
   H     97.96000000    83.02000000    27.34000000
   H     99.39000000    83.76000000    28.12000000
   H     98.31000000    82.97000000    30.35000000
   H     96.96000000    82.35000000    29.43000000
   H     97.68000000    85.18000000    29.72000000
   H     96.42000000    84.29000000    30.49000000
   H     96.67000000    84.62000000    27.55000000
   H     95.46000000    83.85000000    28.29000000
   H     95.56000000    85.46000000    28.49000000
   N     98.33000000    80.16000000    25.39000000
   C     99.69000000    80.28000000    24.91000000
   C     99.93000000    79.40000000    23.69000000
   O     99.02000000    79.15000000    22.90000000
   C     99.92000000    81.76000000    24.62000000
   C    101.40000000    82.06000000    24.72000000
   O    102.19000000    81.17000000    25.11000000
   O    101.77000000    83.20000000    24.36000000
   H     97.63000000    80.03000000    24.67000000
   H    100.36000000    79.91000000    25.69000000
   H     99.43000000    82.44000000    25.32000000
   H     99.49000000    82.12000000    23.69000000
   N    101.15000000    78.91000000    23.46000000
   C    101.73000000    78.42000000    22.23000000
   C    102.98000000    77.57000000    22.40000000
   O    102.82000000    76.38000000    22.65000000
   H    101.82000000    78.98000000    24.21000000
   H    101.89000000    79.27000000    21.57000000
   H    100.97000000    77.81000000    21.74000000
   N    104.15000000    78.19000000    22.24000000
   C    105.46000000    77.59000000    22.29000000
   C    105.94000000    77.18000000    20.90000000
   O    105.63000000    77.80000000    19.88000000
   C    106.47000000    78.55000000    22.90000000
   C    105.88000000    79.13000000    24.18000000
   O    105.85000000    78.53000000    25.27000000
   O    105.36000000    80.27000000    24.14000000
   H    104.14000000    79.17000000    22.00000000
   H    105.38000000    76.74000000    22.97000000
   H    106.72000000    79.38000000    22.24000000
   H    107.39000000    78.00000000    23.12000000
   N    106.73000000    76.11000000    20.81000000
   C    107.33000000    75.41000000    21.93000000
   C    108.80000000    75.71000000    22.16000000
   O    109.28000000    75.26000000    23.20000000
   H    106.95000000    75.74000000    19.90000000
   H    107.24000000    74.33000000    21.81000000
   H    106.93000000    75.73000000    22.89000000
   N    109.49000000    76.41000000    21.26000000
   C    110.94000000    76.44000000    21.40000000
   C    111.54000000    75.09000000    21.05000000
   O    112.33000000    74.48000000    21.78000000
   C    111.50000000    77.20000000    22.59000000
   C    110.62000000    78.43000000    22.79000000
   O    112.85000000    77.46000000    22.26000000
   H    109.05000000    76.66000000    20.39000000
   H    111.36000000    77.05000000    20.60000000
   H    111.55000000    76.59000000    23.50000000
   H    113.33000000    76.99000000    22.94000000
   H    109.69000000    78.26000000    23.32000000
   H    111.11000000    79.23000000    23.35000000
   H    110.44000000    78.97000000    21.85000000
   N    111.08000000    74.53000000    19.93000000
   C    111.47000000    73.28000000    19.32000000
   C    112.92000000    73.24000000    18.83000000
   O    113.15000000    73.13000000    17.63000000
   C    111.11000000    72.04000000    20.14000000
   C    109.61000000    71.86000000    20.37000000
   C    111.66000000    70.68000000    19.72000000
   C    108.59000000    71.80000000    19.25000000
   H    110.42000000    75.02000000    19.34000000
   H    110.84000000    73.30000000    18.44000000
   H    111.59000000    72.26000000    21.10000000
   H    109.33000000    72.75000000    20.95000000
   H    109.52000000    71.08000000    21.13000000
   H    111.23000000    69.95000000    20.40000000
   H    111.31000000    70.61000000    18.69000000
   H    112.75000000    70.73000000    19.78000000
   H    108.30000000    72.81000000    18.94000000
   H    109.06000000    71.28000000    18.41000000
   H    107.63000000    71.38000000    19.54000000
   N    113.92000000    73.35000000    19.70000000
   C    115.34000000    73.13000000    19.52000000
   C    116.01000000    72.16000000    20.49000000
   O    115.32000000    71.88000000    21.47000000
   C    116.11000000    74.44000000    19.67000000
   C    116.06000000    75.12000000    21.04000000
   O    115.71000000    75.37000000    18.69000000
   H    113.62000000    73.46000000    20.66000000
   H    115.54000000    72.72000000    18.53000000
   H    117.16000000    74.31000000    19.40000000
   H    115.07000000    75.98000000    19.07000000
   H    115.25000000    74.84000000    21.71000000
   H    117.01000000    74.82000000    21.50000000
   H    116.23000000    76.19000000    20.92000000
   N    117.22000000    71.64000000    20.28000000
   C    117.91000000    70.89000000    21.31000000
   C    118.49000000    71.82000000    22.36000000
   O    119.34000000    72.62000000    21.98000000
   C    118.99000000    70.00000000    20.69000000
   C    119.58000000    69.03000000    21.71000000
   O    118.43000000    69.35000000    19.58000000
   H    117.65000000    71.66000000    19.37000000
   H    117.24000000    70.13000000    21.73000000
   H    119.84000000    70.60000000    20.36000000
   H    118.81000000    69.74000000    18.78000000
   H    118.84000000    68.34000000    22.10000000
   H    120.27000000    68.41000000    21.14000000
   H    120.20000000    69.57000000    22.43000000
   N    118.27000000    71.69000000    23.67000000
   C    118.76000000    72.51000000    24.75000000
   C    118.22000000    73.92000000    24.61000000
   O    118.91000000    74.86000000    24.21000000
   C    120.25000000    72.29000000    25.01000000
   C    120.82000000    72.68000000    26.37000000
   C    122.30000000    72.37000000    26.55000000
   C    122.51000000    70.86000000    26.59000000
   N    123.85000000    70.36000000    26.92000000
   H    117.70000000    70.87000000    23.87000000
   H    118.31000000    72.12000000    25.67000000
   H    120.86000000    72.86000000    24.31000000
   H    120.50000000    71.25000000    24.83000000
   H    120.23000000    72.06000000    27.04000000
   H    120.65000000    73.72000000    26.66000000
   H    122.56000000    72.62000000    27.58000000
   H    122.89000000    72.85000000    25.77000000
   H    122.25000000    70.49000000    25.60000000
   H    121.85000000    70.42000000    27.35000000
   H    123.94000000    69.39000000    26.66000000
   H    124.57000000    70.80000000    26.36000000
   H    124.15000000    70.40000000    27.88000000
   N    116.94000000    74.06000000    24.95000000
   C    116.22000000    75.32000000    25.01000000
   C    114.84000000    75.35000000    24.37000000
   O    114.53000000    76.44000000    23.90000000
   C    116.06000000    75.76000000    26.46000000
   C    117.22000000    75.61000000    27.44000000
   C    116.82000000    75.80000000    28.89000000
   O    117.58000000    75.48000000    29.84000000
   O    115.73000000    76.34000000    29.16000000
   H    116.50000000    73.29000000    25.44000000
   H    116.83000000    76.09000000    24.53000000
   H    115.30000000    75.19000000    27.01000000
   H    115.78000000    76.80000000    26.58000000
   H    117.84000000    76.45000000    27.13000000
   H    117.75000000    74.65000000    27.37000000
   N    114.03000000    74.31000000    24.20000000
   C    114.14000000    72.92000000    24.58000000
   H    114.96000000    72.80100000    25.28800000
   H    113.20900000    72.59500000    25.04500000
   H    114.33500000    72.31500000    23.69500000
   H    113.31000000    74.52000000    23.51000000
  Ca    104.27500000    80.19000000    26.49000000
   O    104.56500000    82.78000000    26.03000000
   H    103.78500000    83.12000000    26.48000000
   H    104.53500000    83.20000000    25.17000000
   O    104.53500000    80.87000000    29.12000000
   H    104.00500000    80.26000000    29.63000000
   H    104.91500000    81.46000000    29.77000000
   O    106.92500000    80.99000000    27.32000000
   H    107.48500000    81.03000000    28.09000000
   H    107.53500000    80.91000000    26.58000000
   O    105.49500000    78.32000000    28.15000000
   H    106.28500000    77.97000000    27.74000000
   H    105.46500000    77.90000000    29.01000000

Ca 1.00



