%chk=loop3.holoCaM-CaMKII.run12.water3.chk
%nprocshared=20
%mem=10GB
%nosave
#b3lyp/svp scf=(tight,noincore,xqc) Test 
#IOP(5/87=12) Density=Current Pop=(MK,readradii) iop(6/33=2) iop(6/42=6)

loop3.holoCaM-CaMKII.run12.water3 

   0  1 
   C     75.19000000    51.07000000    23.95000000
   C     74.67000000    49.68000000    23.62000000
   O     75.36000000    48.88000000    22.99000000
   H     76.13200000    51.23800000    23.42800000
   H     74.46100000    51.81600000    23.63300000
   H     75.35100000    51.15300000    25.02500000
   N     73.44000000    49.31000000    23.98000000
   C     72.87000000    48.00000000    23.75000000
   C     72.47000000    47.78000000    22.30000000
   O     71.40000000    48.21000000    21.86000000
   C     71.68000000    47.85000000    24.69000000
   C     71.11000000    46.44000000    24.74000000
   O     70.07000000    46.28000000    25.41000000
   O     71.71000000    45.50000000    24.17000000
   H     72.90000000    50.03000000    24.44000000
   H     73.62000000    47.28000000    24.08000000
   H     70.92000000    48.59000000    24.45000000
   H     72.03000000    48.15000000    25.68000000
   N     73.26000000    47.01000000    21.54000000
   C     73.15000000    46.84000000    20.11000000
   C     71.83000000    46.22000000    19.68000000
   O     71.23000000    46.56000000    18.66000000
   C     74.38000000    46.16000000    19.53000000
   C     74.96000000    46.74000000    18.25000000
   C     75.90000000    45.79000000    17.52000000
   C     76.81000000    46.37000000    16.44000000
   N     76.07000000    46.55000000    15.18000000
   H     74.13000000    46.68000000    21.93000000
   H     73.08000000    47.82000000    19.64000000
   H     74.14000000    45.10000000    19.42000000
   H     75.14000000    46.27000000    20.31000000
   H     75.58000000    47.61000000    18.47000000
   H     74.19000000    47.04000000    17.54000000
   H     75.36000000    44.93000000    17.14000000
   H     76.56000000    45.28000000    18.21000000
   H     77.63000000    45.67000000    16.27000000
   H     77.23000000    47.33000000    16.75000000
   H     76.52000000    47.14000000    14.50000000
   H     75.80000000    45.69000000    14.73000000
   H     75.23000000    47.11000000    15.25000000
   N     71.42000000    45.20000000    20.43000000
   C     70.16000000    44.52000000    20.19000000
   C     69.05000000    45.20000000    20.98000000
   O     67.90000000    45.17000000    20.54000000
   C     70.17000000    43.00000000    20.38000000
   C     70.65000000    42.44000000    21.72000000
   O     70.42000000    41.25000000    22.01000000
   O     71.19000000    43.27000000    22.49000000
   H     71.99000000    44.89000000    21.20000000
   H     69.84000000    44.65000000    19.15000000
   H     70.86000000    42.70000000    19.60000000
   H     69.26000000    42.53000000    20.02000000
   N     69.35000000    45.92000000    22.06000000
   C     68.31000000    46.70000000    22.70000000
   C     67.44000000    45.83000000    23.60000000
   O     66.21000000    45.91000000    23.59000000
   H     70.29000000    46.02000000    22.40000000
   H     67.72000000    47.12000000    21.89000000
   H     68.69000000    47.41000000    23.44000000
   N     68.08000000    44.80000000    24.16000000
   C     67.47000000    43.85000000    25.05000000
   C     67.22000000    44.19000000    26.52000000
   O     66.71000000    43.38000000    27.29000000
   C     68.23000000    42.53000000    24.96000000
   C     69.49000000    42.47000000    25.81000000
   N     69.67000000    41.35000000    26.51000000
   O     70.43000000    43.25000000    25.67000000
   H     69.09000000    44.81000000    24.17000000
   H     66.43000000    43.70000000    24.74000000
   H     68.39000000    42.36000000    23.89000000
   H     67.62000000    41.67000000    25.23000000
   H     68.91000000    40.68000000    26.55000000
   H     70.52000000    41.06000000    26.98000000
   N     67.99000000    45.17000000    26.98000000
   C     68.13000000    45.80000000    28.28000000
   C     69.45000000    45.61000000    29.01000000
   O     69.54000000    45.96000000    30.19000000
   H     68.56000000    45.56000000    26.24000000
   H     67.25000000    45.57000000    28.88000000
   H     68.08000000    46.88000000    28.09000000
   N     70.43000000    44.95000000    28.39000000
   C     71.69000000    44.66000000    29.05000000
   C     72.88000000    44.76000000    28.10000000
   O     72.88000000    44.22000000    27.00000000
   C     71.64000000    43.24000000    29.60000000
   C     70.76000000    42.85000000    30.75000000
   C     71.24000000    42.74000000    32.06000000
   C     69.43000000    42.52000000    30.44000000
   C     70.35000000    42.26000000    33.03000000
   C     68.55000000    41.98000000    31.39000000
   C     69.05000000    41.82000000    32.70000000
   O     68.26000000    41.33000000    33.69000000
   H     70.27000000    44.65000000    27.44000000
   H     71.85000000    45.30000000    29.92000000
   H     72.63000000    42.98000000    29.98000000
   H     71.33000000    42.60000000    28.77000000
   H     72.19000000    43.18000000    32.36000000
   H     69.10000000    42.46000000    29.42000000
   H     70.74000000    42.09000000    34.02000000
   H     67.58000000    41.63000000    31.09000000
   H     67.47000000    41.01000000    33.25000000
   N     73.93000000    45.48000000    28.50000000
   C     75.11000000    45.68000000    27.68000000
   C     76.10000000    44.55000000    27.91000000
   O     76.47000000    44.32000000    29.06000000
   C     75.79000000    47.01000000    27.98000000
   C     74.91000000    48.24000000    27.77000000
   C     77.08000000    47.12000000    27.18000000
   C     75.30000000    49.51000000    28.52000000
   H     73.94000000    45.95000000    29.39000000
   H     74.74000000    45.83000000    26.66000000
   H     76.04000000    46.98000000    29.04000000
   H     73.97000000    47.98000000    28.26000000
   H     74.73000000    48.45000000    26.72000000
   H     77.45000000    48.10000000    27.49000000
   H     77.89000000    46.44000000    27.45000000
   H     76.89000000    47.02000000    26.11000000
   H     76.34000000    49.82000000    28.36000000
   H     74.65000000    50.34000000    28.22000000
   H     75.10000000    49.27000000    29.56000000
   N     76.66000000    43.97000000    26.85000000
   C     77.77000000    43.04000000    26.83000000
   C     79.11000000    43.71000000    26.53000000
   O     79.09000000    44.81000000    25.97000000
   C     77.52000000    41.96000000    25.79000000
   O     77.51000000    42.41000000    24.45000000
   H     76.14000000    44.09000000    25.99000000
   H     77.84000000    42.51000000    27.78000000
   H     76.63000000    41.45000000    26.14000000
   H     78.31000000    41.20000000    25.81000000
   H     76.80000000    43.05000000    24.31000000
   N     80.28000000    43.20000000    26.92000000
   C     81.58000000    43.78000000    26.68000000
   C     81.99000000    43.82000000    25.22000000
   O     82.74000000    44.69000000    24.79000000
   C     82.58000000    42.99000000    27.53000000
   H     80.27000000    42.36000000    27.49000000
   H     81.56000000    44.82000000    26.98000000
   H     83.47000000    43.58000000    27.75000000
   H     82.04000000    42.66000000    28.42000000
   H     82.96000000    42.13000000    26.97000000
   N     81.34000000    43.08000000    24.32000000
   C     81.54000000    43.21000000    22.89000000
   C     80.82000000    44.38000000    22.25000000
   O     81.37000000    44.89000000    21.27000000
   C     81.02000000    41.94000000    22.23000000
   H     80.82000000    42.29000000    24.69000000
   H     82.61000000    43.39000000    22.78000000
   H     79.98000000    41.76000000    22.50000000
   H     81.11000000    42.05000000    21.15000000
   H     81.70000000    41.12000000    22.47000000
   N     79.69000000    44.83000000    22.79000000
   C     79.01000000    46.08000000    22.53000000
   C     79.67000000    47.22000000    23.29000000
   O     79.66000000    48.34000000    22.77000000
   C     77.61000000    45.76000000    23.06000000
   C     76.75000000    44.72000000    22.36000000
   C     75.42000000    44.44000000    23.04000000
   O     75.38000000    44.11000000    24.25000000
   O     74.32000000    44.44000000    22.45000000
   H     79.38000000    44.27000000    23.57000000
   H     78.90000000    46.28000000    21.47000000
   H     76.98000000    46.66000000    23.05000000
   H     77.61000000    45.64000000    24.14000000
   H     77.36000000    43.82000000    22.37000000
   H     76.66000000    45.17000000    21.36000000
   N     80.35000000    47.08000000    24.43000000
   C     81.14000000    48.15000000    25.01000000
   H     82.06000000    48.27300000    24.43800000
   H     80.57000000    49.07900000    24.98400000
   H     81.38600000    47.90200000    26.04300000
   H     80.19000000    46.18000000    24.86000000
  Ca     72.89000000    43.25000000    24.34000000
   O     74.04000000    41.50000000    22.68000000
   H     74.18000000    41.59000000    21.73000000
   H     74.69000000    40.86000000    22.96000000
   O     71.87000000    40.84000000    24.25000000
   H     71.26000000    40.91000000    23.52000000
   H     71.78000000    39.94000000    24.56000000
   O     74.05000000    41.50000000    26.08000000
   H     73.42000000    41.40000000    26.80000000
   H     74.12000000    40.62000000    25.71000000

Ca 1.00



