%chk=loop3.apoCaM-CA-Ng.Init295.run60.water4.chk
%nprocshared=20
%mem=10GB
%nosave
#b3lyp/svp scf=(tight,noincore,xqc) Test 
#IOP(5/87=12) Density=Current Pop=(MK,readradii) iop(6/33=2) iop(6/42=6)

loop3.apoCaM-CA-Ng.Init295.run60.water4 

   0  1 
   C     92.20000000    59.34000000    28.75000000
   C     92.62000000    57.90000000    28.52000000
   O     92.44000000    57.02000000    29.36000000
   H     91.22900000    59.36000000    29.24500000
   H     92.93800000    59.83800000    29.37900000
   H     92.13000000    59.85600000    27.79200000
   N     93.31000000    57.64000000    27.40000000
   C     93.78000000    56.32000000    27.03000000
   C     94.78000000    55.69000000    27.98000000
   O     95.66000000    56.31000000    28.58000000
   C     94.42000000    56.42000000    25.65000000
   C     94.64000000    55.01000000    25.11000000
   O     93.67000000    54.33000000    24.72000000
   O     95.81000000    54.57000000    25.11000000
   H     93.48000000    58.43000000    26.79000000
   H     92.87000000    55.74000000    26.88000000
   H     95.39000000    56.90000000    25.74000000
   H     93.75000000    57.05000000    25.07000000
   N     94.60000000    54.37000000    28.11000000
   C     95.28000000    53.50000000    29.05000000
   C     96.79000000    53.51000000    28.91000000
   O     97.47000000    53.16000000    29.87000000
   C     94.67000000    52.10000000    29.14000000
   C     94.66000000    51.51000000    27.73000000
   C     93.99000000    50.14000000    27.78000000
   C     92.49000000    50.15000000    28.06000000
   N     92.04000000    48.80000000    28.40000000
   H     93.79000000    53.99000000    27.65000000
   H     95.13000000    53.88000000    30.07000000
   H     93.68000000    52.20000000    29.58000000
   H     95.26000000    51.51000000    29.84000000
   H     95.69000000    51.37000000    27.39000000
   H     94.12000000    52.21000000    27.09000000
   H     94.54000000    49.63000000    28.57000000
   H     94.11000000    49.68000000    26.80000000
   H     91.93000000    50.68000000    27.28000000
   H     92.31000000    50.77000000    28.94000000
   H     92.55000000    48.39000000    29.18000000
   H     91.10000000    48.82000000    28.78000000
   H     91.94000000    48.11000000    27.67000000
   N     97.39000000    53.92000000    27.79000000
   C     98.81000000    54.18000000    27.63000000
   C     99.16000000    55.60000000    27.21000000
   O    100.31000000    55.90000000    26.92000000
   C     99.42000000    53.23000000    26.61000000
   C     98.82000000    53.21000000    25.21000000
   O     98.96000000    54.25000000    24.53000000
   O     98.24000000    52.21000000    24.74000000
   H     96.75000000    53.92000000    27.01000000
   H     99.30000000    53.98000000    28.59000000
   H     99.38000000    52.24000000    27.07000000
   H    100.50000000    53.38000000    26.56000000
   N     98.16000000    56.50000000    27.23000000
   C     98.26000000    57.93000000    27.08000000
   C     98.23000000    58.48000000    25.66000000
   O     98.17000000    59.70000000    25.56000000
   H     97.29000000    56.19000000    27.64000000
   H     99.24000000    58.22000000    27.48000000
   H     97.41000000    58.39000000    27.59000000
   N     98.08000000    57.65000000    24.62000000
   C     98.12000000    58.06000000    23.23000000
   C     97.11000000    57.30000000    22.38000000
   O     96.91000000    56.09000000    22.51000000
   C     99.56000000    57.98000000    22.74000000
   C     99.67000000    58.75000000    21.43000000
   N     99.62000000    60.07000000    21.58000000
   O     99.70000000    58.28000000    20.29000000
   H     97.81000000    56.70000000    24.84000000
   H     97.79000000    59.10000000    23.20000000
   H     99.74000000    56.95000000    22.43000000
   H    100.25000000    58.24000000    23.54000000
   H     99.68000000    60.46000000    22.50000000
   H     99.64000000    60.58000000    20.70000000
   N     96.52000000    58.00000000    21.41000000
   C     95.25000000    57.73000000    20.76000000
   C     95.16000000    56.86000000    19.51000000
   O     94.07000000    56.66000000    18.97000000
   H     96.71000000    58.99000000    21.50000000
   H     94.88000000    58.72000000    20.48000000
   H     94.79000000    57.24000000    21.61000000
   N     96.33000000    56.35000000    19.13000000
   C     96.37000000    55.19000000    18.25000000
   C     96.08000000    53.88000000    18.97000000
   O     96.61000000    53.62000000    20.06000000
   C     97.71000000    55.19000000    17.53000000
   C     97.95000000    56.23000000    16.47000000
   C     97.24000000    56.11000000    15.27000000
   C     98.83000000    57.31000000    16.63000000
   C     97.46000000    57.02000000    14.23000000
   C     99.23000000    58.11000000    15.55000000
   C     98.47000000    57.99000000    14.38000000
   O     98.64000000    58.93000000    13.40000000
   H     97.22000000    56.57000000    19.54000000
   H     95.58000000    55.41000000    17.53000000
   H     97.81000000    54.23000000    17.01000000
   H     98.52000000    55.28000000    18.26000000
   H     96.54000000    55.30000000    15.12000000
   H     99.37000000    57.35000000    17.57000000
   H     97.03000000    56.82000000    13.26000000
   H     99.98000000    58.89000000    15.61000000
   H     99.28000000    59.61000000    13.64000000
   N     95.29000000    53.01000000    18.34000000
   C     94.93000000    51.66000000    18.72000000
   C     95.99000000    50.59000000    18.51000000
   O     96.99000000    50.62000000    19.23000000
   C     93.95000000    51.61000000    19.89000000
   C     93.57000000    50.21000000    20.37000000
   C     92.69000000    52.42000000    19.61000000
   C     92.54000000    49.97000000    21.47000000
   H     94.79000000    53.31000000    17.52000000
   H     94.14000000    51.45000000    17.99000000
   H     94.42000000    52.13000000    20.72000000
   H     94.43000000    49.58000000    20.61000000
   H     93.18000000    49.62000000    19.54000000
   H     91.80000000    52.03000000    20.11000000
   H     92.79000000    53.45000000    19.96000000
   H     92.38000000    52.30000000    18.57000000
   H     92.77000000    50.69000000    22.26000000
   H     91.56000000    50.32000000    21.16000000
   H     92.63000000    48.97000000    21.89000000
   N     95.72000000    49.61000000    17.64000000
   C     96.45000000    48.36000000    17.59000000
   C     96.25000000    47.53000000    16.33000000
   O     96.91000000    46.51000000    16.15000000
   C     95.94000000    47.55000000    18.77000000
   O     94.56000000    47.30000000    18.66000000
   H     94.99000000    49.72000000    16.95000000
   H     97.50000000    48.65000000    17.70000000
   H     96.18000000    48.03000000    19.72000000
   H     96.49000000    46.60000000    18.80000000
   H     94.25000000    46.83000000    19.44000000
   N     95.25000000    47.86000000    15.51000000
   C     94.91000000    47.30000000    14.22000000
   C     95.21000000    45.82000000    14.12000000
   O     96.19000000    45.44000000    13.47000000
   C     95.61000000    48.23000000    13.24000000
   H     94.66000000    48.66000000    15.69000000
   H     93.84000000    47.53000000    14.16000000
   H     95.34000000    48.09000000    12.19000000
   H     95.37000000    49.29000000    13.37000000
   H     96.69000000    48.15000000    13.35000000
   N     94.52000000    44.85000000    14.74000000
   C     93.56000000    45.10000000    15.79000000
   C     92.08000000    45.00000000    15.43000000
   O     91.77000000    44.31000000    14.47000000
   C     93.82000000    44.14000000    16.95000000
   H     94.76000000    43.92000000    14.43000000
   H     93.76000000    46.06000000    16.26000000
   H     93.19000000    44.36000000    17.82000000
   H     93.68000000    43.12000000    16.59000000
   H     94.87000000    44.27000000    17.20000000
   N     91.07000000    45.50000000    16.15000000
   C     91.13000000    46.56000000    17.13000000
   C     90.27000000    47.76000000    16.73000000
   O     90.68000000    48.89000000    16.98000000
   C     90.66000000    45.99000000    18.46000000
   C     90.96000000    46.91000000    19.65000000
   C     90.48000000    46.31000000    20.96000000
   O     89.25000000    46.21000000    21.13000000
   O     91.36000000    45.84000000    21.72000000
   H     90.20000000    45.00000000    16.04000000
   H     92.15000000    46.92000000    17.30000000
   H     91.11000000    45.01000000    18.61000000
   H     89.60000000    45.77000000    18.39000000
   H     90.45000000    47.86000000    19.48000000
   H     92.03000000    47.08000000    19.61000000
   N     89.24000000    47.49000000    15.93000000
   C     88.27000000    48.48000000    15.51000000
   H     87.38200000    48.40700000    16.13800000
   H     88.70200000    49.47600000    15.60600000
   H     87.99400000    48.30100000    14.47100000
   H     89.00000000    46.51000000    15.87000000
  Ca     97.03000000    53.53000000    22.82000000
   O     94.49000000    54.11000000    22.09000000
   H     94.25000000    53.39000000    21.51000000
   H     93.85000000    54.07000000    22.80000000
   O     97.30000000    51.10000000    21.72000000
   H     97.13000000    50.96000000    20.79000000
   H     96.93000000    50.32000000    22.14000000
   O     99.34000000    53.71000000    21.37000000
   H     99.68000000    54.55000000    21.06000000
   H     99.66000000    53.08000000    20.73000000
   O     95.15000000    51.91000000    23.51000000
   H     94.52000000    52.35000000    24.08000000
   H     95.16000000    51.01000000    23.82000000

Ca 1.00



