%chk=loop1.apoCaM-CA-Ng.Init295.run78.water5.chk
%nprocshared=20
%mem=10GB
%nosave
#b3lyp/svp scf=(tight,noincore,xqc) Test 
#IOP(5/87=12) Density=Current Pop=(MK,readradii) iop(6/33=2) iop(6/42=6)

loop1.apoCaM-CA-Ng.Init295.run78.water5 

   0  1 
   C     -0.12000000     6.80000000    55.92000000
   C      0.04000000     7.77000000    54.75000000
   O     -0.91000000     7.94000000    53.99000000
   H     -1.16400000     6.49600000    55.99900000
   H      0.50200000     5.92100000    55.75100000
   H      0.18600000     7.29100000    56.84400000
   N      1.20000000     8.42000000    54.67000000
   C      1.63000000     9.14000000    53.49000000
   C      2.89000000     8.46000000    52.98000000
   O      3.49000000     7.63000000    53.65000000
   C      1.92000000    10.57000000    53.95000000
   C      2.10000000    11.58000000    52.83000000
   O      2.43000000    12.74000000    53.18000000
   O      1.91000000    11.32000000    51.62000000
   H      1.91000000     8.20000000    55.34000000
   H      0.86000000     9.20000000    52.72000000
   H      2.86000000    10.46000000    54.49000000
   H      1.11000000    10.97000000    54.56000000
   N      3.37000000     8.90000000    51.81000000
   C      4.55000000     8.46000000    51.10000000
   C      5.76000000     8.76000000    51.98000000
   O      6.64000000     7.91000000    52.05000000
   C      4.57000000     9.02000000    49.68000000
   C      3.36000000     8.60000000    48.86000000
   C      3.56000000     8.73000000    47.35000000
   C      3.41000000    10.19000000    46.94000000
   N      3.63000000    10.35000000    45.49000000
   H      2.93000000     9.74000000    51.46000000
   H      4.42000000     7.38000000    51.05000000
   H      5.42000000     8.59000000    49.16000000
   H      4.66000000    10.11000000    49.69000000
   H      2.46000000     9.11000000    49.23000000
   H      3.15000000     7.54000000    48.99000000
   H      2.81000000     8.09000000    46.87000000
   H      4.56000000     8.42000000    47.07000000
   H      4.09000000    10.93000000    47.38000000
   H      2.42000000    10.63000000    47.10000000
   H      3.30000000    11.20000000    45.07000000
   H      4.60000000    10.35000000    45.21000000
   H      3.23000000     9.56000000    45.00000000
   N      5.79000000     9.92000000    52.65000000
   C      6.91000000    10.26000000    53.51000000
   C      6.50000000    10.39000000    54.98000000
   O      5.67000000    11.25000000    55.26000000
   C      7.60000000    11.48000000    52.91000000
   C      8.81000000    12.05000000    53.63000000
   O      9.49000000    11.46000000    54.51000000
   O      9.04000000    13.26000000    53.44000000
   H      4.98000000    10.51000000    52.64000000
   H      7.64000000     9.46000000    53.42000000
   H      6.93000000    12.33000000    52.82000000
   H      7.80000000    11.35000000    51.85000000
   N      7.19000000     9.66000000    55.86000000
   C      7.04000000     9.89000000    57.28000000
   C      8.36000000    10.31000000    57.92000000
   O      9.38000000     9.76000000    57.51000000
   H      7.97000000     9.09000000    55.57000000
   H      6.56000000     9.04000000    57.77000000
   H      6.38000000    10.74000000    57.45000000
   N      8.33000000    11.27000000    58.85000000
   C      9.50000000    11.73000000    59.58000000
   C      9.30000000    11.87000000    61.08000000
   O     10.16000000    11.47000000    61.87000000
   C     10.12000000    13.04000000    59.10000000
   C     10.41000000    12.91000000    57.61000000
   O     11.25000000    12.08000000    57.19000000
   O      9.92000000    13.64000000    56.72000000
   H      7.49000000    11.82000000    58.98000000
   H     10.27000000    10.99000000    59.36000000
   H     11.06000000    13.25000000    59.61000000
   H      9.44000000    13.86000000    59.29000000
   N      8.12000000    12.41000000    61.41000000
   C      7.73000000    12.64000000    62.78000000
   C      7.17000000    11.36000000    63.37000000
   O      7.02000000    10.31000000    62.74000000
   H      7.57000000    12.76000000    60.64000000
   H      6.86000000    13.28000000    62.66000000
   H      8.53000000    13.10000000    63.36000000
   N      6.75000000    11.48000000    64.63000000
   C      5.97000000    10.43000000    65.26000000
   C      6.89000000     9.54000000    66.08000000
   O      7.95000000     9.89000000    66.59000000
   C      4.81000000    11.04000000    66.05000000
   C      5.24000000    11.90000000    67.23000000
   O      3.99000000    11.89000000    65.28000000
   H      6.78000000    12.41000000    65.01000000
   H      5.52000000     9.82000000    64.48000000
   H      4.20000000    10.27000000    66.54000000
   H      3.34000000    12.19000000    65.92000000
   H      5.94000000    12.66000000    66.90000000
   H      4.33000000    12.30000000    67.68000000
   H      5.76000000    11.24000000    67.93000000
   N      6.48000000     8.27000000    66.23000000
   C      7.04000000     7.40000000    67.24000000
   C      8.44000000     6.92000000    66.91000000
   O      9.25000000     6.62000000    67.79000000
   C      6.02000000     6.30000000    67.52000000
   C      5.66000000     5.44000000    66.31000000
   C      4.77000000     6.91000000    68.14000000
   C      5.13000000     4.06000000    66.68000000
   H      5.60000000     8.06000000    65.80000000
   H      7.26000000     7.93000000    68.17000000
   H      6.45000000     5.60000000    68.23000000
   H      6.60000000     5.36000000    65.75000000
   H      4.85000000     5.90000000    65.75000000
   H      4.16000000     6.06000000    68.45000000
   H      4.96000000     7.36000000    69.12000000
   H      4.26000000     7.64000000    67.51000000
   H      4.94000000     3.37000000    65.85000000
   H      5.86000000     3.54000000    67.29000000
   H      4.15000000     4.06000000    67.15000000
   N      8.85000000     7.06000000    65.65000000
   C     10.23000000     6.80000000    65.26000000
   C     10.58000000     5.33000000    65.44000000
   O      9.82000000     4.47000000    64.99000000
   C     10.41000000     7.09000000    63.78000000
   C      9.80000000     8.39000000    63.26000000
   O     11.78000000     7.28000000    63.53000000
   H      8.17000000     7.34000000    64.96000000
   H     10.91000000     7.49000000    65.77000000
   H     10.05000000     6.31000000    63.11000000
   H     11.80000000     7.63000000    62.64000000
   H      8.71000000     8.42000000    63.36000000
   H     10.23000000     9.17000000    63.89000000
   H      9.96000000     8.64000000    62.22000000
   N     11.72000000     5.07000000    66.07000000
   C     12.15000000     3.71000000    66.35000000
   C     11.22000000     2.93000000    67.27000000
   O     11.55000000     1.76000000    67.43000000
   C     13.60000000     3.56000000    66.82000000
   C     13.81000000     4.26000000    68.16000000
   O     14.44000000     4.22000000    65.90000000
   H     12.34000000     5.85000000    66.26000000
   H     12.07000000     3.28000000    65.35000000
   H     13.78000000     2.49000000    66.80000000
   H     15.28000000     3.75000000    65.98000000
   H     14.87000000     4.25000000    68.40000000
   H     13.47000000     5.29000000    68.24000000
   H     13.34000000     3.80000000    69.03000000
   N     10.20000000     3.57000000    67.84000000
   C      9.42000000     2.97000000    68.90000000
   C      8.40000000     1.99000000    68.35000000
   O      8.18000000     1.99000000    67.14000000
   C      8.82000000     4.06000000    69.78000000
   C      9.85000000     4.83000000    70.60000000
   C      9.22000000     5.85000000    71.54000000
   C      8.34000000     6.94000000    70.95000000
   N      7.77000000     7.87000000    71.94000000
   H      9.95000000     4.50000000    67.56000000
   H     10.03000000     2.37000000    69.59000000
   H      8.07000000     3.65000000    70.46000000
   H      8.26000000     4.64000000    69.04000000
   H     10.58000000     5.31000000    69.95000000
   H     10.37000000     4.06000000    71.17000000
   H     10.05000000     6.44000000    71.91000000
   H      8.66000000     5.33000000    72.32000000
   H      7.55000000     6.45000000    70.39000000
   H      8.89000000     7.57000000    70.24000000
   H      7.08000000     7.44000000    72.54000000
   H      8.52000000     8.21000000    72.52000000
   H      7.41000000     8.70000000    71.50000000
   N      7.77000000     1.20000000    69.22000000
   C      6.62000000     0.40000000    68.87000000
   C      6.91000000    -0.78000000    67.95000000
   O      7.96000000    -1.40000000    68.04000000
   C      5.91000000    -0.01000000    70.16000000
   C      5.47000000     1.17000000    71.02000000
   C      4.43000000     0.76000000    72.06000000
   O      3.42000000     1.49000000    72.17000000
   O      4.61000000    -0.23000000    72.80000000
   H      8.15000000     1.24000000    70.16000000
   H      5.97000000     1.06000000    68.29000000
   H      6.60000000    -0.62000000    70.74000000
   H      4.97000000    -0.52000000    69.94000000
   H      5.03000000     1.83000000    70.27000000
   H      6.24000000     1.75000000    71.52000000
   N      6.00000000    -1.06000000    67.01000000
   C      4.62000000    -0.65000000    66.84000000
   H      4.01500000    -1.07100000    67.64300000
   H      4.55700000     0.43800000    66.87100000
   H      4.24900000    -1.00900000    65.88000000
   H      6.29000000    -1.82000000    66.40000000
  Ca     11.44000000    13.20000000    54.73000000
   O     10.34000000    15.53000000    54.51000000
   H      9.42000000    15.55000000    54.24000000
   H     10.77000000    16.18000000    53.96000000
   O     11.96000000    11.78000000    52.56000000
   H     12.32000000    10.89000000    52.55000000
   H     12.24000000    12.16000000    51.73000000
   O     13.78000000    11.88000000    55.04000000
   H     14.48000000    12.35000000    54.57000000
   H     14.20000000    11.10000000    55.38000000
   O     13.21000000    14.35000000    53.15000000
   H     13.30000000    15.03000000    52.48000000
   H     14.10000000    14.06000000    53.32000000
   O     13.06000000    14.78000000    56.13000000
   H     12.82000000    15.19000000    56.96000000
   H     14.01000000    14.80000000    56.11000000

Ca 1.00



