%chk=loop3.apoCaM-CA-Ng.Init31.run70.water6.chk
%nprocshared=20
%mem=10GB
%nosave
#b3lyp/svp scf=(tight,noincore,xqc) Test 
#IOP(5/87=12) Density=Current Pop=(MK,readradii) iop(6/33=2) iop(6/42=6)

loop3.apoCaM-CA-Ng.Init31.run70.water6 

   0  1 
   C     95.46000000    71.35000000    32.89000000
   C     94.71000000    71.08000000    31.60000000
   O     94.21000000    69.98000000    31.39000000
   H     96.35700000    71.93000000    32.67300000
   H     94.82100000    71.91100000    33.57200000
   H     95.74200000    70.40400000    33.35200000
   N     94.60000000    72.06000000    30.69000000
   C     94.01000000    71.88000000    29.38000000
   C     95.20000000    71.50000000    28.51000000
   O     96.38000000    71.77000000    28.74000000
   C     93.06000000    73.02000000    29.05000000
   C     93.82000000    74.33000000    29.25000000
   O     94.84000000    74.55000000    28.57000000
   O     93.44000000    75.22000000    30.03000000
   H     95.07000000    72.92000000    30.92000000
   H     93.42000000    70.96000000    29.37000000
   H     92.28000000    72.95000000    29.81000000
   H     92.60000000    72.89000000    28.07000000
   N     94.85000000    70.98000000    27.33000000
   C     95.85000000    70.91000000    26.29000000
   C     96.89000000    69.83000000    26.57000000
   O     98.00000000    69.88000000    26.06000000
   C     95.11000000    70.84000000    24.95000000
   C     95.95000000    71.19000000    23.73000000
   C     95.25000000    71.38000000    22.38000000
   C     94.36000000    72.60000000    22.26000000
   N     93.41000000    72.45000000    21.14000000
   H     93.85000000    70.92000000    27.18000000
   H     96.37000000    71.86000000    26.27000000
   H     94.32000000    71.59000000    24.96000000
   H     94.69000000    69.85000000    24.83000000
   H     96.75000000    70.45000000    23.60000000
   H     96.38000000    72.17000000    23.91000000
   H     94.73000000    70.42000000    22.34000000
   H     96.00000000    71.42000000    21.59000000
   H     94.85000000    73.56000000    22.10000000
   H     93.76000000    72.61000000    23.17000000
   H     93.99000000    72.43000000    20.31000000
   H     92.78000000    71.66000000    21.17000000
   H     92.83000000    73.27000000    21.02000000
   N     96.57000000    68.83000000    27.40000000
   C     97.54000000    67.83000000    27.80000000
   C     97.79000000    66.74000000    26.78000000
   O     97.33000000    65.62000000    26.96000000
   C     97.16000000    67.38000000    29.21000000
   C     95.74000000    66.86000000    29.38000000
   O     95.51000000    66.53000000    30.57000000
   O     94.81000000    66.88000000    28.55000000
   H     95.62000000    68.77000000    27.76000000
   H     98.53000000    68.27000000    27.92000000
   H     97.35000000    68.25000000    29.84000000
   H     97.88000000    66.60000000    29.46000000
   N     98.44000000    67.08000000    25.66000000
   C     98.61000000    66.29000000    24.46000000
   C     97.35000000    65.83000000    23.72000000
   O     96.35000000    66.54000000    23.74000000
   H     98.73000000    68.05000000    25.61000000
   H     99.10000000    65.43000000    24.90000000
   H     99.35000000    66.76000000    23.81000000
   N     97.35000000    64.66000000    23.06000000
   C     98.46000000    63.74000000    22.90000000
   C     98.37000000    62.73000000    24.03000000
   O     97.28000000    62.46000000    24.52000000
   C     98.44000000    63.03000000    21.55000000
   C     97.32000000    62.02000000    21.34000000
   N     96.14000000    62.51000000    20.96000000
   O     97.47000000    60.86000000    21.71000000
   H     96.53000000    64.50000000    22.49000000
   H     99.40000000    64.29000000    22.90000000
   H     99.37000000    62.54000000    21.27000000
   H     98.40000000    63.82000000    20.79000000
   H     95.96000000    63.44000000    20.62000000
   H     95.42000000    61.81000000    20.84000000
   N     99.43000000    62.30000000    24.73000000
   C    100.81000000    62.58000000    24.40000000
   C    101.58000000    63.19000000    25.57000000
   O    101.85000000    64.39000000    25.55000000
   H     99.24000000    61.58000000    25.41000000
   H    101.02000000    63.25000000    23.57000000
   H    101.33000000    61.66000000    24.12000000
   N    101.76000000    62.43000000    26.65000000
   C    102.53000000    62.88000000    27.78000000
   C    104.03000000    62.70000000    27.58000000
   O    104.47000000    61.63000000    27.18000000
   C    102.02000000    62.14000000    29.02000000
   C    100.53000000    61.91000000    29.08000000
   C     99.60000000    62.92000000    28.82000000
   C    100.11000000    60.65000000    29.52000000
   C     98.23000000    62.72000000    29.05000000
   C     98.77000000    60.42000000    29.87000000
   C     97.87000000    61.42000000    29.46000000
   O     96.54000000    61.27000000    29.73000000
   H    101.44000000    61.47000000    26.64000000
   H    102.22000000    63.90000000    28.00000000
   H    102.41000000    62.77000000    29.82000000
   H    102.54000000    61.18000000    28.96000000
   H     99.83000000    63.96000000    28.66000000
   H    100.80000000    59.82000000    29.52000000
   H     97.50000000    63.50000000    28.88000000
   H     98.43000000    59.52000000    30.35000000
   H     96.39000000    60.58000000    30.38000000
   N    104.85000000    63.76000000    27.65000000
   C    106.19000000    63.81000000    27.10000000
   C    107.23000000    64.50000000    27.97000000
   O    108.43000000    64.44000000    27.71000000
   C    106.14000000    64.47000000    25.72000000
   C    105.56000000    63.53000000    24.67000000
   C    105.59000000    65.89000000    25.70000000
   C    105.88000000    63.92000000    23.23000000
   H    104.52000000    64.69000000    27.87000000
   H    106.66000000    62.83000000    27.01000000
   H    107.21000000    64.46000000    25.53000000
   H    104.49000000    63.40000000    24.78000000
   H    105.98000000    62.55000000    24.90000000
   H    104.54000000    65.83000000    25.98000000
   H    106.05000000    66.32000000    26.59000000
   H    105.75000000    66.31000000    24.70000000
   H    105.84000000    62.98000000    22.68000000
   H    105.16000000    64.69000000    22.95000000
   H    106.92000000    64.25000000    23.24000000
   N    106.78000000    65.22000000    29.00000000
   C    107.64000000    66.03000000    29.83000000
   C    107.32000000    67.51000000    29.64000000
   O    108.04000000    68.38000000    30.12000000
   C    107.52000000    65.50000000    31.25000000
   O    106.43000000    66.08000000    31.92000000
   H    105.78000000    65.31000000    29.17000000
   H    108.63000000    65.94000000    29.37000000
   H    108.48000000    65.63000000    31.75000000
   H    107.33000000    64.42000000    31.22000000
   H    105.72000000    65.73000000    31.40000000
   N    106.18000000    67.84000000    29.03000000
   C    105.58000000    69.14000000    28.82000000
   C    104.83000000    69.62000000    30.05000000
   O    103.76000000    70.23000000    30.02000000
   C    104.88000000    69.26000000    27.48000000
   H    105.59000000    67.05000000    28.79000000
   H    106.38000000    69.88000000    28.75000000
   H    105.32000000    68.58000000    26.75000000
   H    103.80000000    69.19000000    27.61000000
   H    105.05000000    70.26000000    27.08000000
   N    105.36000000    69.35000000    31.25000000
   C    104.81000000    69.73000000    32.53000000
   C    103.53000000    68.96000000    32.84000000
   O    102.87000000    69.21000000    33.84000000
   C    104.75000000    71.25000000    32.63000000
   H    106.26000000    68.89000000    31.21000000
   H    105.51000000    69.35000000    33.29000000
   H    105.70000000    71.67000000    32.28000000
   H    103.90000000    71.53000000    32.01000000
   H    104.67000000    71.64000000    33.64000000
   N    103.08000000    67.98000000    32.05000000
   C    101.87000000    67.24000000    32.31000000
   C    101.97000000    66.11000000    33.33000000
   O    100.93000000    65.71000000    33.86000000
   C    101.25000000    66.78000000    31.00000000
   C    101.95000000    65.59000000    30.34000000
   C    103.35000000    65.85000000    29.79000000
   O    104.42000000    65.72000000    30.43000000
   O    103.36000000    66.06000000    28.56000000
   H    103.47000000    67.83000000    31.13000000
   H    101.11000000    67.91000000    32.72000000
   H    101.17000000    67.67000000    30.38000000
   H    100.21000000    66.49000000    31.15000000
   H    101.39000000    65.32000000    29.45000000
   H    101.88000000    64.73000000    31.01000000
   N    103.18000000    65.72000000    33.71000000
   C    103.37000000    64.65000000    34.67000000
   H    104.15200000    64.93000000    35.37600000
   H    102.43900000    64.47600000    35.21000000
   H    103.66300000    63.74000000    34.14700000
   H    104.05000000    66.04000000    33.30000000
  Ca     92.97000000    65.73000000    30.34000000
   O     92.34000000    68.34000000    29.31000000
   H     91.46000000    68.14000000    29.61000000
   H     92.22000000    68.84000000    28.50000000
   O     91.41000000    62.98000000    30.19000000
   H     91.93000000    62.19000000    30.33000000
   H     90.65000000    62.68000000    29.68000000
   O     93.14000000    67.63000000    32.13000000
   H     92.66000000    67.94000000    32.90000000
   H     93.49000000    68.42000000    31.73000000
   O     92.18000000    65.55000000    27.69000000
   H     92.42000000    66.25000000    27.08000000
   H     91.45000000    65.10000000    27.26000000
   O     94.12000000    64.02000000    32.39000000
   H     94.09000000    63.09000000    32.13000000
   H     94.20000000    64.00000000    33.34000000
   O     94.11000000    63.62000000    29.03000000
   H     94.15000000    63.39000000    28.10000000
   H     94.45000000    62.85000000    29.48000000

Ca 1.00



