%chk=loop3.apoCaM-CA-Ng.Init31.run37.water6.chk
%nprocshared=20
%mem=10GB
%nosave
#b3lyp/svp scf=(tight,noincore,xqc) Test 
#IOP(5/87=12) Density=Current Pop=(MK,readradii) iop(6/33=2) iop(6/42=6)

loop3.apoCaM-CA-Ng.Init31.run37.water6 

   0  1 
   C     98.04000000    55.29000000   100.42000000
   C     99.36000000    56.05000000   100.37000000
   O     99.93000000    56.25000000    99.30000000
   H     97.27900000    55.84900000    99.87500000
   H     98.16700000    54.30900000    99.96200000
   H     97.72800000    55.17000000   101.45800000
   N     99.88000000    56.53000000   101.51000000
   C    101.00000000    57.43000000   101.60000000
   C    102.15000000    56.67000000   102.26000000
   O    102.01000000    55.61000000   102.85000000
   C    100.72000000    58.68000000   102.44000000
   C    100.00000000    58.46000000   103.76000000
   O     99.93000000    59.44000000   104.54000000
   O     99.50000000    57.34000000   104.00000000
   H     99.43000000    56.29000000   102.38000000
   H    101.33000000    57.79000000   100.63000000
   H    100.07000000    59.31000000   101.83000000
   H    101.59000000    59.31000000   102.58000000
   N    103.34000000    57.28000000   102.15000000
   C    104.61000000    56.82000000   102.67000000
   C    105.10000000    55.52000000   102.05000000
   O    105.91000000    54.82000000   102.66000000
   C    105.60000000    57.98000000   102.54000000
   C    105.33000000    59.06000000   103.59000000
   C    106.35000000    60.19000000   103.48000000
   C    106.51000000    60.89000000   104.83000000
   N    107.24000000    62.16000000   104.64000000
   H    103.31000000    58.16000000   101.66000000
   H    104.47000000    56.71000000   103.74000000
   H    105.67000000    58.41000000   101.54000000
   H    106.61000000    57.58000000   102.65000000
   H    105.50000000    58.55000000   104.54000000
   H    104.29000000    59.37000000   103.56000000
   H    105.94000000    60.94000000   102.80000000
   H    107.30000000    59.93000000   103.03000000
   H    106.98000000    60.25000000   105.57000000
   H    105.55000000    61.16000000   105.28000000
   H    108.12000000    62.02000000   104.18000000
   H    106.78000000    62.74000000   103.96000000
   H    107.41000000    62.64000000   105.51000000
   N    104.63000000    55.16000000   100.86000000
   C    104.77000000    53.85000000   100.26000000
   C    105.77000000    53.77000000    99.12000000
   O    106.68000000    52.94000000    99.11000000
   C    103.42000000    53.32000000    99.78000000
   C    102.43000000    54.18000000    99.00000000
   O    101.31000000    53.70000000    98.70000000
   O    102.78000000    55.33000000    98.65000000
   H    104.10000000    55.86000000   100.35000000
   H    105.07000000    53.23000000   101.11000000
   H    102.95000000    52.98000000   100.70000000
   H    103.55000000    52.35000000    99.32000000
   N    105.54000000    54.61000000    98.11000000
   C    106.13000000    54.56000000    96.79000000
   C    107.61000000    54.90000000    96.74000000
   O    108.23000000    55.22000000    97.75000000
   H    104.77000000    55.23000000    98.30000000
   H    105.57000000    55.30000000    96.21000000
   H    105.89000000    53.58000000    96.35000000
   N    108.35000000    54.80000000    95.63000000
   C    107.81000000    54.87000000    94.28000000
   C    107.09000000    56.20000000    94.12000000
   O    107.46000000    57.19000000    94.75000000
   C    109.01000000    54.61000000    93.38000000
   C    109.75000000    53.34000000    93.79000000
   N    109.33000000    52.24000000    93.17000000
   O    110.68000000    53.40000000    94.59000000
   H    109.35000000    54.80000000    95.78000000
   H    107.08000000    54.08000000    94.10000000
   H    109.59000000    55.53000000    93.48000000
   H    108.67000000    54.44000000    92.36000000
   H    108.51000000    52.20000000    92.58000000
   H    109.78000000    51.35000000    93.34000000
   N    106.09000000    56.31000000    93.25000000
   C    105.58000000    55.36000000    92.28000000
   C    104.69000000    54.30000000    92.92000000
   O    104.47000000    54.28000000    94.13000000
   H    105.82000000    57.28000000    93.09000000
   H    106.35000000    54.80000000    91.77000000
   H    104.95000000    55.92000000    91.58000000
   N    104.15000000    53.41000000    92.09000000
   C    103.24000000    52.33000000    92.43000000
   C    103.90000000    50.98000000    92.66000000
   O    105.03000000    50.77000000    92.23000000
   C    102.18000000    52.30000000    91.34000000
   C    101.11000000    53.37000000    91.40000000
   C     99.84000000    53.05000000    91.90000000
   C    101.36000000    54.61000000    90.81000000
   C     98.79000000    53.97000000    91.75000000
   C    100.32000000    55.53000000    90.66000000
   C     99.03000000    55.21000000    91.13000000
   O     98.03000000    56.14000000    91.02000000
   H    104.41000000    53.54000000    91.13000000
   H    102.72000000    52.56000000    93.36000000
   H    101.58000000    51.39000000    91.26000000
   H    102.62000000    52.40000000    90.34000000
   H     99.63000000    52.09000000    92.35000000
   H    102.29000000    54.93000000    90.35000000
   H     97.83000000    53.75000000    92.19000000
   H    100.42000000    56.46000000    90.13000000
   H     98.27000000    56.92000000    90.52000000
   N    103.26000000    50.09000000    93.43000000
   C    104.02000000    49.07000000    94.13000000
   C    103.31000000    47.73000000    94.21000000
   O    104.00000000    46.72000000    94.32000000
   C    104.47000000    49.49000000    95.53000000
   C    105.37000000    50.72000000    95.42000000
   C    103.33000000    49.80000000    96.49000000
   C    106.07000000    51.05000000    96.74000000
   H    102.33000000    50.35000000    93.71000000
   H    104.93000000    48.81000000    93.59000000
   H    105.07000000    48.66000000    95.89000000
   H    104.83000000    51.62000000    95.13000000
   H    106.18000000    50.64000000    94.69000000
   H    102.76000000    50.65000000    96.12000000
   H    102.71000000    48.90000000    96.61000000
   H    103.70000000    50.08000000    97.48000000
   H    105.41000000    51.55000000    97.45000000
   H    106.46000000    50.15000000    97.21000000
   H    106.89000000    51.71000000    96.44000000
   N    101.97000000    47.66000000    94.26000000
   C    101.23000000    46.43000000    94.08000000
   C    100.77000000    45.72000000    95.34000000
   O    100.54000000    44.52000000    95.31000000
   C    100.04000000    46.64000000    93.15000000
   O     98.95000000    47.28000000    93.77000000
   H    101.42000000    48.50000000    94.33000000
   H    101.88000000    45.77000000    93.49000000
   H     99.65000000    45.66000000    92.86000000
   H    100.43000000    47.37000000    92.44000000
   H     98.28000000    47.36000000    93.09000000
   N    100.58000000    46.45000000    96.45000000
   C    100.04000000    45.97000000    97.71000000
   C     98.55000000    46.23000000    97.80000000
   O     98.07000000    47.06000000    98.58000000
   C    100.93000000    46.51000000    98.83000000
   H    100.70000000    47.45000000    96.40000000
   H    100.08000000    44.88000000    97.78000000
   H    100.68000000    46.14000000    99.83000000
   H    102.00000000    46.31000000    98.70000000
   H    100.77000000    47.58000000    98.89000000
   N     97.78000000    45.73000000    96.83000000
   C     96.36000000    45.91000000    96.63000000
   C     95.87000000    47.34000000    96.50000000
   O     94.71000000    47.64000000    96.80000000
   C     95.46000000    45.08000000    97.55000000
   H     98.26000000    45.19000000    96.13000000
   H     96.14000000    45.51000000    95.64000000
   H     94.53000000    44.78000000    97.09000000
   H     95.96000000    44.15000000    97.82000000
   H     95.31000000    45.65000000    98.47000000
   N     96.67000000    48.30000000    96.03000000
   C     96.37000000    49.71000000    96.20000000
   C     95.33000000    50.30000000    95.26000000
   O     94.82000000    51.40000000    95.50000000
   C     97.71000000    50.44000000    96.18000000
   C     98.32000000    50.65000000    94.80000000
   C     99.83000000    50.78000000    94.83000000
   O    100.28000000    51.56000000    95.70000000
   O    100.56000000    50.21000000    93.99000000
   H     97.53000000    47.99000000    95.60000000
   H     95.90000000    49.81000000    97.18000000
   H     98.46000000    49.95000000    96.80000000
   H     97.55000000    51.42000000    96.64000000
   H     97.94000000    51.56000000    94.32000000
   H     98.10000000    49.78000000    94.18000000
   N     94.91000000    49.50000000    94.28000000
   C     93.75000000    49.85000000    93.48000000
   H     92.95800000    50.21800000    94.13200000
   H     94.02200000    50.62700000    92.76500000
   H     93.39900000    48.96900000    92.94300000
   H     95.25000000    48.55000000    94.28000000
  Ca    100.93300000    55.66000000    96.76000000
   O     99.18000000    53.87000000    96.08000000
   H     98.31000000    53.76000000    95.70000000
   H     99.59000000    53.01000000    96.02000000
   O    102.08300000    53.61000000    95.51000000
   H    102.66300000    53.87000000    94.80000000
   H    101.67300000    52.80000000    95.21000000
   O    100.74300000    55.80000000    94.13000000
   H    100.06300000    56.11000000    93.53000000
   H    101.56300000    56.04000000    93.70000000
   O     98.48000000    56.93000000    96.26000000
   H     98.21000000    56.61000000    95.40000000
   H     97.68000000    56.92000000    96.79000000
   O    103.51300000    56.28000000    95.73000000
   H    103.95300000    55.61000000    95.21000000
   H    104.13300000    57.01000000    95.76000000
   O    101.35300000    58.38000000    96.54000000
   H    101.63300000    59.09000000    97.12000000
   H    101.31300000    58.79000000    95.67000000

Ca 1.00



