%chk=loop4.apoCaM-CA-Ng.Init295.run78.water3.chk
%nprocshared=20
%mem=10GB
%nosave
#b3lyp/svp scf=(tight,noincore,xqc) Test 
#IOP(5/87=12) Density=Current Pop=(MK,readradii) iop(6/33=2) iop(6/42=6)

loop4.apoCaM-CA-Ng.Init295.run78.water3 

   -3  1 
   C    -13.71000000   -29.15000000    38.26000000
   C    -14.71000000   -30.17000000    38.78000000
   O    -14.93000000   -30.31000000    39.99000000
   H    -12.78300000   -29.65600000    37.99100000
   H    -14.12100000   -28.65300000    37.38100000
   H    -13.50800000   -28.41000000    39.03500000
   N    -15.15000000   -31.14000000    37.97000000
   C    -16.00000000   -32.27000000    38.25000000
   C    -17.40000000   -31.82000000    38.66000000
   O    -18.06000000   -32.40000000    39.52000000
   C    -15.23000000   -33.34000000    39.03000000
   C    -13.80000000   -33.68000000    38.65000000
   O    -13.33000000   -33.71000000    37.49000000
   O    -12.95000000   -33.93000000    39.52000000
   H    -14.88000000   -30.94000000    37.02000000
   H    -16.11000000   -32.76000000    37.28000000
   H    -15.85000000   -34.24000000    38.96000000
   H    -15.29000000   -33.08000000    40.09000000
   N    -17.94000000   -30.78000000    38.03000000
   C    -19.27000000   -30.28000000    38.32000000
   C    -20.40000000   -31.03000000    37.62000000
   O    -20.21000000   -31.62000000    36.56000000
   C    -19.47000000   -28.79000000    38.05000000
   C    -18.26000000   -27.94000000    38.43000000
   C    -20.74000000   -28.20000000    38.66000000
   C    -17.86000000   -27.94000000    39.90000000
   H    -17.43000000   -30.44000000    37.23000000
   H    -19.36000000   -30.43000000    39.39000000
   H    -19.70000000   -28.66000000    37.00000000
   H    -18.51000000   -26.91000000    38.17000000
   H    -17.43000000   -28.28000000    37.81000000
   H    -21.58000000   -28.78000000    38.26000000
   H    -20.75000000   -28.30000000    39.75000000
   H    -20.78000000   -27.14000000    38.42000000
   H    -18.60000000   -27.39000000    40.47000000
   H    -17.76000000   -28.98000000    40.22000000
   H    -16.89000000   -27.44000000    39.99000000
   N    -21.57000000   -31.34000000    38.18000000
   C    -21.90000000   -31.23000000    39.58000000
   C    -21.70000000   -32.54000000    40.33000000
   O    -21.78000000   -32.52000000    41.56000000
   C    -23.33000000   -30.77000000    39.85000000
   C    -24.35000000   -31.45000000    38.95000000
   O    -24.03000000   -32.29000000    38.09000000
   O    -25.57000000   -31.23000000    39.17000000
   H    -22.25000000   -31.82000000    37.60000000
   H    -21.22000000   -30.49000000    40.01000000
   H    -23.53000000   -29.72000000    39.66000000
   H    -23.68000000   -31.00000000    40.86000000
   N    -21.42000000   -33.68000000    39.69000000
   C    -21.21000000   -34.98000000    40.28000000
   C    -22.44000000   -35.60000000    40.93000000
   O    -23.52000000   -35.02000000    40.82000000
   H    -21.34000000   -33.64000000    38.69000000
   H    -20.35000000   -35.04000000    40.95000000
   H    -21.01000000   -35.66000000    39.45000000
   N    -22.32000000   -36.79000000    41.51000000
   C    -23.37000000   -37.52000000    42.20000000
   C    -23.55000000   -36.95000000    43.60000000
   O    -24.46000000   -37.43000000    44.27000000
   C    -23.28000000   -39.04000000    42.10000000
   C    -22.00000000   -39.64000000    42.67000000
   O    -21.96000000   -40.87000000    42.91000000
   O    -20.91000000   -39.04000000    42.76000000
   H    -21.39000000   -37.18000000    41.53000000
   H    -24.31000000   -37.22000000    41.73000000
   H    -23.29000000   -39.32000000    41.05000000
   H    -24.16000000   -39.47000000    42.58000000
   N    -22.77000000   -36.00000000    44.11000000
   C    -22.84000000   -35.42000000    45.44000000
   C    -21.71000000   -35.92000000    46.33000000
   O    -21.64000000   -35.59000000    47.51000000
   H    -22.22000000   -35.49000000    43.44000000
   H    -23.75000000   -35.88000000    45.84000000
   H    -22.98000000   -34.34000000    45.40000000
   N    -20.94000000   -36.92000000    45.91000000
   C    -19.82000000   -37.56000000    46.58000000
   C    -18.78000000   -36.61000000    47.16000000
   O    -18.23000000   -36.86000000    48.23000000
   C    -20.38000000   -38.58000000    47.57000000
   C    -21.00000000   -39.65000000    46.68000000
   C    -19.98000000   -40.65000000    46.16000000
   N    -19.88000000   -40.91000000    44.86000000
   O    -19.18000000   -41.23000000    46.89000000
   H    -21.07000000   -37.22000000    44.95000000
   H    -19.25000000   -38.09000000    45.82000000
   H    -21.10000000   -38.11000000    48.24000000
   H    -19.53000000   -39.10000000    48.04000000
   H    -21.60000000   -39.19000000    45.90000000
   H    -21.64000000   -40.16000000    47.40000000
   H    -20.48000000   -40.46000000    44.18000000
   H    -19.21000000   -41.61000000    44.57000000
   N    -18.55000000   -35.46000000    46.53000000
   C    -17.58000000   -34.45000000    46.90000000
   C    -16.21000000   -34.86000000    46.39000000
   O    -16.07000000   -35.36000000    45.27000000
   C    -17.91000000   -33.06000000    46.36000000
   C    -19.36000000   -32.58000000    46.31000000
   C    -17.20000000   -32.08000000    47.29000000
   H    -19.10000000   -35.29000000    45.70000000
   H    -17.60000000   -34.40000000    47.99000000
   H    -17.48000000   -32.78000000    45.40000000
   H    -19.76000000   -32.60000000    47.32000000
   H    -19.33000000   -31.54000000    45.98000000
   H    -19.89000000   -33.24000000    45.63000000
   H    -17.50000000   -31.07000000    47.05000000
   H    -17.35000000   -32.26000000    48.36000000
   H    -16.12000000   -32.24000000    47.31000000
   N    -15.17000000   -34.69000000    47.20000000
   C    -13.78000000   -34.95000000    46.89000000
   C    -12.92000000   -33.73000000    47.20000000
   O    -13.35000000   -32.73000000    47.77000000
   C    -13.24000000   -36.31000000    47.34000000
   C    -14.23000000   -37.43000000    47.08000000
   N    -14.25000000   -38.02000000    45.88000000
   O    -14.82000000   -38.02000000    47.98000000
   H    -15.32000000   -34.34000000    48.14000000
   H    -13.84000000   -34.98000000    45.81000000
   H    -13.08000000   -36.19000000    48.42000000
   H    -12.29000000   -36.46000000    46.82000000
   H    -13.57000000   -37.74000000    45.19000000
   H    -14.89000000   -38.74000000    45.56000000
   N    -11.61000000   -33.81000000    46.95000000
   C    -10.59000000   -32.81000000    47.14000000
   C     -9.42000000   -33.02000000    46.19000000
   O     -8.32000000   -33.08000000    46.72000000
   C    -10.16000000   -32.86000000    48.61000000
   C     -9.59000000   -31.51000000    48.96000000
   C    -10.44000000   -30.40000000    49.08000000
   C     -8.21000000   -31.34000000    49.14000000
   C     -9.93000000   -29.19000000    49.55000000
   C     -7.68000000   -30.08000000    49.48000000
   C     -8.54000000   -28.99000000    49.70000000
   O     -7.99000000   -27.82000000    50.14000000
   H    -11.31000000   -34.73000000    46.64000000
   H    -10.99000000   -31.82000000    46.90000000
   H     -9.36000000   -33.59000000    48.71000000
   H    -11.02000000   -33.04000000    49.26000000
   H    -11.52000000   -30.46000000    49.01000000
   H     -7.49000000   -32.14000000    49.10000000
   H    -10.55000000   -28.35000000    49.83000000
   H     -6.62000000   -30.07000000    49.65000000
   H     -7.04000000   -27.91000000    50.24000000
   N     -9.70000000   -33.11000000    44.89000000
   C     -8.76000000   -33.40000000    43.82000000
   C     -7.73000000   -32.35000000    43.45000000
   O     -6.54000000   -32.67000000    43.37000000
   C     -9.37000000   -34.15000000    42.64000000
   C     -8.36000000   -34.65000000    41.61000000
   C     -9.00000000   -35.55000000    40.56000000
   O     -8.39000000   -36.55000000    40.12000000
   O    -10.11000000   -35.38000000    40.01000000
   H    -10.58000000   -32.86000000    44.46000000
   H     -8.13000000   -34.19000000    44.24000000
   H    -10.18000000   -33.66000000    42.09000000
   H     -9.73000000   -35.14000000    42.94000000
   H     -7.60000000   -35.22000000    42.15000000
   H     -7.87000000   -33.81000000    41.12000000
   N     -8.17000000   -31.13000000    43.17000000
   C     -9.53000000   -30.73000000    42.86000000
   C    -10.15000000   -30.05000000    44.07000000
   O     -9.50000000   -29.83000000    45.08000000
   C     -9.56000000   -29.66000000    41.77000000
   C     -8.86000000   -29.99000000    40.45000000
   C     -9.35000000   -31.28000000    39.82000000
   O    -10.49000000   -31.74000000    40.08000000
   O     -8.80000000   -31.76000000    38.81000000
   H     -7.44000000   -30.44000000    43.04000000
   H    -10.12000000   -31.61000000    42.60000000
   H     -9.15000000   -28.77000000    42.24000000
   H    -10.59000000   -29.46000000    41.48000000
   H     -7.80000000   -30.02000000    40.70000000
   H     -8.96000000   -29.14000000    39.77000000
   N    -11.45000000   -29.76000000    43.97000000
   C    -12.33000000   -28.93000000    44.76000000
   H    -13.28600000   -29.43700000    44.89200000
   H    -11.87900000   -28.74600000    45.73500000
   H    -12.49100000   -27.98100000    44.24900000
   H    -11.91000000   -30.05000000    43.11000000
  Ca    -10.75600000   -33.51600000    38.19000000
   O    -10.20600000   -33.34600000    35.53000000
   H    -10.53600000   -33.66600000    34.68000000
   H     -9.61600000   -32.63600000    35.30000000
   O     -8.65600000   -34.74600000    37.18000000
   H     -7.93600000   -35.27600000    37.52000000
   H     -8.24600000   -34.20600000    36.50000000
   O    -11.70600000   -35.86600000    36.88000000
   H    -11.97600000   -36.66600000    36.45000000
   H    -12.50600000   -35.33600000    36.94000000

Ca 1.00



