%chk=loop2.apoCaM-CA-Ng.Init31.run4.water3.chk
%nprocshared=20
%mem=10GB
%nosave
#b3lyp/svp scf=(tight,noincore,xqc) Test 
#IOP(5/87=12) Density=Current Pop=(MK,readradii) iop(6/33=2) iop(6/42=6)

loop2.apoCaM-CA-Ng.Init31.run4.water3 

   -2  1 
   C     42.10000000    40.94000000     9.03000000
   C     41.32000000    42.22000000     8.78000000
   O     41.88000000    43.28000000     9.04000000
   H     43.04100000    41.18000000     9.52500000
   H     41.51500000    40.27600000     9.66600000
   H     42.30500000    40.44700000     8.08000000
   N     40.14000000    42.30000000     8.16000000
   C     39.13000000    41.31000000     7.87000000
   C     37.72000000    41.88000000     7.92000000
   O     37.29000000    42.74000000     7.15000000
   C     39.36000000    40.65000000     6.52000000
   C     39.73000000    41.53000000     5.34000000
   O     40.17000000    40.99000000     4.30000000
   O     39.39000000    42.73000000     5.28000000
   H     39.87000000    43.24000000     7.90000000
   H     39.14000000    40.53000000     8.64000000
   H     38.47000000    40.09000000     6.22000000
   H     40.19000000    39.95000000     6.68000000
   N     36.85000000    41.34000000     8.78000000
   C     35.41000000    41.27000000     8.60000000
   C     35.03000000    40.83000000     7.19000000
   O     34.87000000    39.62000000     7.08000000
   C     34.72000000    42.54000000     9.07000000
   H     37.19000000    40.71000000     9.49000000
   H     34.95000000    40.58000000     9.30000000
   H     35.14000000    43.43000000     8.60000000
   H     33.64000000    42.47000000     8.95000000
   H     34.98000000    42.72000000    10.12000000
   N     34.80000000    41.69000000     6.19000000
   C     34.55000000    41.27000000     4.83000000
   C     35.90000000    41.04000000     4.18000000
   O     36.80000000    41.87000000     4.29000000
   C     33.65000000    42.24000000     4.07000000
   C     34.21000000    43.65000000     3.94000000
   O     35.13000000    44.06000000     4.68000000
   O     33.67000000    44.43000000     3.12000000
   H     34.90000000    42.67000000     6.42000000
   H     34.02000000    40.32000000     4.90000000
   H     32.68000000    42.39000000     4.55000000
   H     33.54000000    41.75000000     3.10000000
   N     36.17000000    39.94000000     3.48000000
   C     37.44000000    39.46000000     2.96000000
   C     37.88000000    40.31000000     1.78000000
   O     37.62000000    39.90000000     0.65000000
   H     35.36000000    39.35000000     3.40000000
   H     37.37000000    38.41000000     2.67000000
   H     38.12000000    39.53000000     3.81000000
   N     38.61000000    41.41000000     1.94000000
   C     39.00000000    42.30000000     0.87000000
   C     40.10000000    43.27000000     1.29000000
   O     40.62000000    43.86000000     0.35000000
   C     37.74000000    43.07000000     0.48000000
   C     36.93000000    43.69000000     1.60000000
   N     35.63000000    43.94000000     1.39000000
   O     37.45000000    44.10000000     2.64000000
   H     38.63000000    41.77000000     2.89000000
   H     39.48000000    41.85000000    -0.01000000
   H     37.09000000    42.40000000    -0.09000000
   H     37.96000000    43.82000000    -0.28000000
   H     35.23000000    43.55000000     0.54000000
   H     35.12000000    44.34000000     2.16000000
   N     40.45000000    43.43000000     2.57000000
   C     41.25000000    44.44000000     3.22000000
   C     40.54000000    45.72000000     3.64000000
   O     39.48000000    45.66000000     4.26000000
   H     39.92000000    42.80000000     3.17000000
   H     42.04000000    44.70000000     2.51000000
   H     41.78000000    44.05000000     4.08000000
   N     41.12000000    46.90000000     3.37000000
   C     42.07000000    47.25000000     2.35000000
   C     43.53000000    47.24000000     2.78000000
   O     44.49000000    47.19000000     2.01000000
   C     41.78000000    48.59000000     1.67000000
   C     40.38000000    48.70000000     1.08000000
   O     41.79000000    49.60000000     2.65000000
   H     40.67000000    47.69000000     3.81000000
   H     42.05000000    46.41000000     1.66000000
   H     42.48000000    48.80000000     0.86000000
   H     42.54000000    50.18000000     2.50000000
   H     40.22000000    47.94000000     0.31000000
   H     39.52000000    48.54000000     1.72000000
   H     40.19000000    49.61000000     0.50000000
   N     43.72000000    47.21000000     4.10000000
   C     44.96000000    47.26000000     4.84000000
   C     45.73000000    48.55000000     4.56000000
   O     46.58000000    48.68000000     3.68000000
   C     45.72000000    45.94000000     4.78000000
   C     44.81000000    44.73000000     4.99000000
   C     46.90000000    46.06000000     5.75000000
   C     45.40000000    43.37000000     4.64000000
   H     42.92000000    47.25000000     4.72000000
   H     44.65000000    47.31000000     5.89000000
   H     46.15000000    45.81000000     3.79000000
   H     43.96000000    44.90000000     4.32000000
   H     44.37000000    44.67000000     5.98000000
   H     47.43000000    45.12000000     5.65000000
   H     47.69000000    46.73000000     5.40000000
   H     46.56000000    46.30000000     6.76000000
   H     46.00000000    43.40000000     3.73000000
   H     46.03000000    42.91000000     5.41000000
   H     44.55000000    42.77000000     4.33000000
   N     45.34000000    49.67000000     5.17000000
   C     44.32000000    49.85000000     6.18000000
   C     44.79000000    49.21000000     7.48000000
   O     44.00000000    48.65000000     8.23000000
   C     43.95000000    51.33000000     6.29000000
   C     45.07000000    52.30000000     6.66000000
   O     46.27000000    52.05000000     6.41000000
   O     44.74000000    53.34000000     7.26000000
   H     45.94000000    50.48000000     5.11000000
   H     43.40000000    49.37000000     5.86000000
   H     43.19000000    51.34000000     7.07000000
   H     43.49000000    51.50000000     5.33000000
   N     46.03000000    49.45000000     7.91000000
   C     46.68000000    48.76000000     9.00000000
   C     46.34000000    49.35000000    10.36000000
   O     46.16000000    50.56000000    10.46000000
   C     48.19000000    48.74000000     8.78000000
   C     49.00000000    50.02000000     8.85000000
   C     49.03000000    50.97000000     7.83000000
   C     49.73000000    50.19000000    10.03000000
   C     49.70000000    52.19000000     7.98000000
   C     50.57000000    51.31000000    10.13000000
   C     50.52000000    52.27000000     9.12000000
   H     46.53000000    50.13000000     7.34000000
   H     46.33000000    47.73000000     8.88000000
   H     48.48000000    48.21000000     7.87000000
   H     48.56000000    48.07000000     9.56000000
   H     48.40000000    50.83000000     6.96000000
   H     49.75000000    49.51000000    10.87000000
   H     49.61000000    52.88000000     7.15000000
   H     51.32000000    51.43000000    10.90000000
   H     51.02000000    53.22000000     9.24000000
   N     46.38000000    48.62000000    11.47000000
   C     46.55000000    47.19000000    11.67000000
   C     45.68000000    46.17000000    10.94000000
   O     44.72000000    46.56000000    10.28000000
   C     46.64000000    47.06000000    13.19000000
   C     45.67000000    48.12000000    13.71000000
   C     45.93000000    49.24000000    12.70000000
   H     47.54000000    47.01000000    11.26000000
   H     46.45000000    46.02000000    13.46000000
   H     47.64000000    47.34000000    13.50000000
   H     44.61000000    47.92000000    13.57000000
   H     45.97000000    48.33000000    14.74000000
   H     44.93000000    49.67000000    12.61000000
   H     46.68000000    49.87000000    13.17000000
   N     45.92000000    44.88000000    11.14000000
   C     45.12000000    43.73000000    10.78000000
   C     45.85000000    42.39000000    10.89000000
   O     45.35000000    41.46000000    11.51000000
   C     43.74000000    43.76000000    11.43000000
   C     43.63000000    44.27000000    12.87000000
   C     42.17000000    44.25000000    13.30000000
   O     41.91000000    43.85000000    14.46000000
   O     41.31000000    44.67000000    12.49000000
   H     46.75000000    44.69000000    11.68000000
   H     44.88000000    43.69000000     9.72000000
   H     43.29000000    42.78000000    11.30000000
   H     43.15000000    44.37000000    10.75000000
   H     44.00000000    45.28000000    13.01000000
   H     44.27000000    43.79000000    13.61000000
   N     47.09000000    42.25000000    10.44000000
   C     48.05000000    43.12000000     9.77000000
   H     48.98300000    42.57800000     9.61400000
   H     47.64700000    43.43400000     8.80700000
   H     48.23900000    43.99700000    10.38800000
   H     47.49000000    41.33000000    10.50000000
  Ca     37.56000000    44.41000000     5.24000000
   O     39.49000000    45.45000000     7.17000000
   H     40.12000000    46.05000000     6.76000000
   H     39.78000000    45.39000000     8.08000000
   O     36.27000000    45.92000000     7.04000000
   H     35.37000000    46.01000000     6.71000000
   H     36.19000000    46.05000000     7.98000000
   O     36.58000000    46.71000000     3.93000000
   H     35.71000000    47.09000000     3.81000000
   H     36.87000000    46.48000000     3.04000000

Ca 1.00



