%chk=loop4.holoCaM-CaMKII.run42.water2.chk
%nprocshared=20
%mem=10GB
%nosave
#b3lyp/svp scf=(tight,noincore,xqc) Test 
#IOP(5/87=12) Density=Current Pop=(MK,readradii) iop(6/33=2) iop(6/42=6)

loop4.holoCaM-CaMKII.run42.water2 

   -3  1 
   C      2.56000000    50.97000000     9.97000000
   C      2.45000000    52.22000000    10.84000000
   O      1.38000000    52.81000000    10.92000000
   H      3.59900000    50.64100000     9.93800000
   H      1.94100000    50.17800000    10.39100000
   H      2.22100000    51.19900000     8.96000000
   N      3.58000000    52.63000000    11.42000000
   C      3.69000000    53.79000000    12.29000000
   C      3.21000000    55.00000000    11.50000000
   O      3.40000000    55.23000000    10.31000000
   C      5.13000000    53.90000000    12.76000000
   C      5.31000000    55.05000000    13.73000000
   O      4.34000000    55.60000000    14.30000000
   O      6.46000000    55.43000000    14.04000000
   H      4.44000000    52.15000000    11.24000000
   H      3.06000000    53.58000000    13.16000000
   H      5.76000000    54.14000000    11.90000000
   H      5.62000000    53.01000000    13.15000000
   N      2.47000000    55.92000000    12.13000000
   C      1.93000000    57.18000000    11.68000000
   C      2.57000000    58.38000000    12.36000000
   O      2.38000000    59.49000000    11.86000000
   C      0.41000000    57.14000000    11.77000000
   C     -0.12000000    55.92000000    11.02000000
   C     -0.26000000    58.45000000    11.37000000
   C     -1.58000000    55.67000000    11.39000000
   H      2.32000000    55.71000000    13.10000000
   H      2.09000000    57.21000000    10.60000000
   H      0.15000000    57.10000000    12.83000000
   H      0.38000000    54.99000000    11.29000000
   H     -0.06000000    56.18000000     9.96000000
   H     -0.07000000    58.79000000    10.35000000
   H     -1.34000000    58.35000000    11.36000000
   H     -0.03000000    59.27000000    12.05000000
   H     -2.23000000    56.39000000    10.90000000
   H     -1.78000000    54.70000000    10.94000000
   H     -1.79000000    55.77000000    12.46000000
   N      3.13000000    58.22000000    13.57000000
   C      3.75000000    59.29000000    14.31000000
   C      5.22000000    59.49000000    13.94000000
   O      5.73000000    60.57000000    14.22000000
   C      3.57000000    59.11000000    15.81000000
   C      2.19000000    58.77000000    16.35000000
   O      2.02000000    57.56000000    16.62000000
   O      1.31000000    59.63000000    16.55000000
   H      3.14000000    57.28000000    13.95000000
   H      3.26000000    60.23000000    14.03000000
   H      3.87000000    60.05000000    16.27000000
   H      4.32000000    58.42000000    16.22000000
   N      5.96000000    58.48000000    13.49000000
   C      7.41000000    58.50000000    13.54000000
   C      7.97000000    58.64000000    14.94000000
   O      8.67000000    59.58000000    15.30000000
   H      5.53000000    57.59000000    13.29000000
   H      7.65000000    59.36000000    12.92000000
   H      7.79000000    57.62000000    13.02000000
   N      7.65000000    57.61000000    15.73000000
   C      8.21000000    57.23000000    17.01000000
   C      9.02000000    55.93000000    17.02000000
   O      9.91000000    55.84000000    17.86000000
   C      7.17000000    57.31000000    18.12000000
   C      5.88000000    56.59000000    17.72000000
   O      5.91000000    55.51000000    17.09000000
   O      4.81000000    57.12000000    18.08000000
   H      7.10000000    56.89000000    15.28000000
   H      8.97000000    57.97000000    17.25000000
   H      7.07000000    58.39000000    18.22000000
   H      7.63000000    56.89000000    19.01000000
   N      8.73000000    55.02000000    16.09000000
   C      9.35000000    53.72000000    16.01000000
   C      8.49000000    52.59000000    16.57000000
   O      9.04000000    51.53000000    16.82000000
   H      7.86000000    55.17000000    15.59000000
   H     10.30000000    53.68000000    16.53000000
   H      9.53000000    53.44000000    14.97000000
   N      7.21000000    52.78000000    16.91000000
   C      6.41000000    51.75000000    17.54000000
   C      5.00000000    51.88000000    16.98000000
   O      4.60000000    52.91000000    16.43000000
   C      6.46000000    51.91000000    19.06000000
   C      7.44000000    50.93000000    19.69000000
   C      7.39000000    51.06000000    21.20000000
   N      8.48000000    51.63000000    21.74000000
   O      6.45000000    50.75000000    21.93000000
   H      6.78000000    53.64000000    16.61000000
   H      6.67000000    50.73000000    17.28000000
   H      5.50000000    51.59000000    19.48000000
   H      6.85000000    52.86000000    19.41000000
   H      8.41000000    51.13000000    19.23000000
   H      7.33000000    49.89000000    19.39000000
   H      9.25000000    51.78000000    21.11000000
   H      8.48000000    51.90000000    22.71000000
   N      4.24000000    50.79000000    17.12000000
   C      3.00000000    50.65000000    16.39000000
   C      1.81000000    50.33000000    17.28000000
   O      1.78000000    49.22000000    17.81000000
   C      3.13000000    49.63000000    15.26000000
   C      1.94000000    49.85000000    14.33000000
   C      4.38000000    49.81000000    14.40000000
   H      4.56000000    50.05000000    17.72000000
   H      2.73000000    51.62000000    15.98000000
   H      3.20000000    48.58000000    15.57000000
   H      1.02000000    49.60000000    14.86000000
   H      1.99000000    50.84000000    13.88000000
   H      1.97000000    49.16000000    13.49000000
   H      4.35000000    48.99000000    13.68000000
   H      4.20000000    50.70000000    13.80000000
   H      5.29000000    49.76000000    14.99000000
   N      0.86000000    51.26000000    17.42000000
   C     -0.38000000    51.01000000    18.14000000
   C     -1.36000000    50.34000000    17.19000000
   O     -1.26000000    50.33000000    15.96000000
   C     -0.79000000    52.31000000    18.82000000
   C     -2.08000000    52.20000000    19.63000000
   N     -2.06000000    51.50000000    20.76000000
   O     -3.13000000    52.63000000    19.16000000
   H      0.93000000    52.07000000    16.83000000
   H     -0.20000000    50.33000000    18.97000000
   H     -1.01000000    53.00000000    18.00000000
   H     -0.00000000    52.53000000    19.53000000
   H     -1.26000000    50.95000000    21.05000000
   H     -2.97000000    51.52000000    21.19000000
   N     -2.42000000    49.78000000    17.78000000
   C     -3.33000000    48.97000000    16.99000000
   C     -4.04000000    49.78000000    15.92000000
   O     -4.32000000    49.33000000    14.81000000
   C     -4.35000000    48.49000000    18.01000000
   C     -5.44000000    47.52000000    17.60000000
   C     -5.16000000    46.24000000    17.12000000
   C     -6.77000000    47.96000000    17.60000000
   C     -6.23000000    45.43000000    16.74000000
   C     -7.86000000    47.10000000    17.38000000
   C     -7.58000000    45.81000000    16.89000000
   O     -8.66000000    45.01000000    16.62000000
   H     -2.62000000    49.83000000    18.77000000
   H     -2.82000000    48.20000000    16.41000000
   H     -4.69000000    49.43000000    18.45000000
   H     -3.88000000    47.97000000    18.85000000
   H     -4.14000000    45.90000000    16.99000000
   H     -7.09000000    48.98000000    17.77000000
   H     -6.05000000    44.43000000    16.36000000
   H     -8.88000000    47.44000000    17.43000000
   H     -9.39000000    45.32000000    17.15000000
   N     -4.31000000    51.05000000    16.26000000
   C     -4.76000000    52.07000000    15.34000000
   C     -3.96000000    52.25000000    14.06000000
   O     -4.41000000    52.73000000    13.03000000
   C     -4.87000000    53.43000000    16.03000000
   C     -5.91000000    53.49000000    17.15000000
   C     -6.19000000    54.94000000    17.54000000
   O     -6.23000000    55.24000000    18.75000000
   O     -6.40000000    55.79000000    16.65000000
   H     -4.44000000    51.28000000    17.24000000
   H     -5.76000000    51.84000000    14.98000000
   H     -4.90000000    54.19000000    15.26000000
   H     -3.97000000    53.75000000    16.56000000
   H     -5.46000000    52.89000000    17.94000000
   H     -6.79000000    52.93000000    16.82000000
   N     -2.66000000    51.96000000    14.17000000
   C     -1.66000000    52.15000000    13.14000000
   C     -1.58000000    50.84000000    12.36000000
   O     -1.36000000    50.83000000    11.15000000
   C     -0.33000000    52.60000000    13.74000000
   C     -0.36000000    53.89000000    14.56000000
   C      1.00000000    54.20000000    15.16000000
   O      1.51000000    55.30000000    14.84000000
   O      1.60000000    53.54000000    16.03000000
   H     -2.37000000    51.27000000    14.85000000
   H     -1.93000000    52.90000000    12.40000000
   H      0.44000000    52.74000000    12.99000000
   H      0.05000000    51.77000000    14.33000000
   H     -1.04000000    53.79000000    15.41000000
   H     -0.76000000    54.70000000    13.96000000
   N     -1.75000000    49.70000000    13.03000000
   C     -1.76000000    48.34000000    12.52000000
   H     -1.62600000    48.35700000    11.43800000
   H     -0.94900000    47.77400000    12.97700000
   H     -2.71300000    47.86800000    12.76000000
   H     -1.85000000    49.88000000    14.02000000
  Ca      3.33000000    55.37000000    16.67000000
   O      3.51000000    54.56000000    19.23000000
   H      3.17000000    54.71000000    20.11000000
   H      4.40000000    54.90000000    19.25000000
   O      0.95000000    55.80000000    18.29000000
   H      1.06000000    56.64000000    17.84000000
   H      0.15000000    55.91000000    18.81000000

Ca 1.00



