%chk=loop4.apoCaM-CA-Ng.Init293.run82.water3.chk
%nprocshared=20
%mem=10GB
%nosave
#b3lyp/svp scf=(tight,noincore,xqc) Test 
#IOP(5/87=12) Density=Current Pop=(MK,readradii) iop(6/33=2) iop(6/42=6)

loop4.apoCaM-CA-Ng.Init293.run82.water3 

   -3  1 
   C     56.97000000    85.77000000    58.68000000
   C     55.76000000    85.62000000    59.59000000
   O     54.61000000    85.73000000    59.19000000
   H     57.82800000    85.27100000    59.13200000
   H     56.75600000    85.31700000    57.71200000
   H     57.19500000    86.82800000    58.54500000
   N     56.09000000    85.23000000    60.83000000
   C     55.35000000    84.90000000    62.03000000
   C     54.19000000    83.92000000    62.03000000
   O     53.64000000    83.52000000    63.06000000
   C     54.99000000    86.21000000    62.71000000
   C     53.93000000    87.04000000    61.99000000
   O     52.88000000    86.54000000    61.52000000
   O     53.95000000    88.28000000    61.84000000
   H     57.09000000    85.18000000    61.00000000
   H     56.15000000    84.37000000    62.55000000
   H     55.90000000    86.80000000    62.74000000
   H     54.55000000    86.08000000    63.70000000
   N     53.73000000    83.38000000    60.90000000
   C     52.67000000    82.41000000    60.75000000
   C     51.30000000    83.06000000    60.72000000
   O     51.27000000    84.16000000    60.18000000
   C     52.94000000    81.34000000    59.70000000
   C     54.07000000    80.35000000    59.99000000
   C     53.11000000    81.96000000    58.32000000
   C     53.82000000    79.57000000    61.28000000
   H     54.01000000    83.82000000    60.03000000
   H     52.70000000    81.70000000    61.58000000
   H     52.03000000    80.74000000    59.64000000
   H     54.93000000    80.94000000    60.30000000
   H     54.32000000    79.66000000    59.18000000
   H     52.17000000    82.47000000    58.10000000
   H     53.86000000    82.76000000    58.30000000
   H     53.38000000    81.22000000    57.57000000
   H     54.08000000    80.29000000    62.05000000
   H     52.80000000    79.19000000    61.36000000
   H     54.56000000    78.76000000    61.28000000
   N     50.27000000    82.53000000    61.39000000
   C     49.01000000    83.22000000    61.59000000
   C     49.08000000    84.48000000    62.46000000
   O     49.70000000    84.41000000    63.51000000
   C     48.15000000    82.09000000    62.14000000
   C     46.72000000    82.52000000    62.43000000
   O     46.39000000    83.04000000    63.51000000
   O     45.86000000    82.18000000    61.59000000
   H     50.45000000    81.68000000    61.89000000
   H     48.64000000    83.56000000    60.63000000
   H     48.58000000    81.82000000    63.11000000
   H     48.27000000    81.26000000    61.45000000
   N     48.31000000    85.55000000    62.30000000
   C     47.45000000    85.85000000    61.17000000
   C     48.18000000    86.05000000    59.85000000
   O     49.39000000    86.31000000    59.80000000
   H     48.25000000    86.25000000    63.04000000
   H     46.89000000    86.75000000    61.39000000
   H     46.67000000    85.10000000    61.07000000
   N     47.51000000    85.77000000    58.73000000
   C     46.22000000    85.19000000    58.47000000
   C     46.25000000    84.53000000    57.09000000
   O     46.49000000    85.27000000    56.14000000
   C     45.11000000    86.23000000    58.54000000
   C     43.69000000    85.76000000    58.21000000
   O     43.39000000    84.61000000    58.59000000
   O     42.86000000    86.64000000    57.90000000
   H     48.08000000    85.90000000    57.90000000
   H     45.88000000    84.49000000    59.24000000
   H     45.43000000    87.11000000    57.98000000
   H     45.02000000    86.50000000    59.59000000
   N     45.93000000    83.24000000    56.97000000
   C     45.69000000    82.21000000    57.96000000
   C     45.76000000    80.76000000    57.49000000
   O     45.01000000    79.98000000    58.06000000
   H     45.94000000    82.89000000    56.02000000
   H     44.69000000    82.28000000    58.39000000
   H     46.45000000    82.38000000    58.72000000
   N     46.44000000    80.45000000    56.38000000
   C     46.17000000    79.18000000    55.72000000
   C     47.39000000    78.43000000    55.20000000
   O     47.25000000    77.50000000    54.41000000
   C     45.17000000    79.40000000    54.60000000
   C     43.99000000    80.32000000    54.91000000
   C     42.86000000    80.45000000    53.90000000
   N     42.04000000    79.40000000    53.80000000
   O     42.66000000    81.40000000    53.14000000
   H     46.67000000    81.25000000    55.81000000
   H     45.79000000    78.46000000    56.44000000
   H     44.76000000    78.40000000    54.45000000
   H     45.66000000    79.66000000    53.66000000
   H     44.36000000    81.33000000    55.09000000
   H     43.54000000    80.02000000    55.86000000
   H     42.04000000    78.62000000    54.45000000
   H     41.23000000    79.51000000    53.22000000
   N     48.59000000    78.88000000    55.56000000
   C     49.85000000    78.49000000    54.95000000
   C     50.70000000    79.62000000    54.37000000
   O     50.64000000    80.71000000    54.92000000
   C     50.58000000    77.47000000    55.80000000
   C     49.76000000    76.19000000    55.99000000
   C     50.93000000    78.03000000    57.18000000
   H     48.57000000    79.66000000    56.20000000
   H     49.53000000    77.93000000    54.07000000
   H     51.47000000    77.15000000    55.26000000
   H     49.51000000    75.71000000    55.04000000
   H     50.24000000    75.44000000    56.62000000
   H     48.82000000    76.44000000    56.49000000
   H     50.03000000    78.31000000    57.72000000
   H     51.56000000    77.36000000    57.77000000
   H     51.47000000    78.97000000    57.15000000
   N     51.57000000    79.37000000    53.39000000
   C     52.25000000    80.46000000    52.72000000
   C     51.42000000    81.34000000    51.81000000
   O     51.84000000    82.38000000    51.31000000
   C     53.52000000    79.88000000    52.10000000
   C     54.49000000    80.93000000    51.57000000
   N     54.50000000    81.29000000    50.29000000
   O     55.30000000    81.37000000    52.38000000
   H     51.73000000    78.41000000    53.11000000
   H     52.55000000    81.13000000    53.53000000
   H     53.29000000    79.21000000    51.27000000
   H     54.11000000    79.45000000    52.91000000
   H     53.92000000    80.89000000    49.57000000
   H     55.27000000    81.79000000    49.87000000
   N     50.12000000    81.03000000    51.69000000
   C     49.06000000    81.73000000    50.99000000
   C     48.81000000    83.11000000    51.58000000
   O     48.59000000    83.24000000    52.79000000
   C     47.83000000    80.83000000    51.11000000
   C     46.72000000    81.37000000    50.23000000
   C     45.46000000    81.64000000    50.76000000
   C     46.98000000    81.45000000    48.86000000
   C     44.49000000    82.21000000    49.93000000
   C     46.00000000    82.03000000    48.05000000
   C     44.78000000    82.49000000    48.58000000
   O     43.83000000    83.00000000    47.74000000
   H     49.75000000    80.16000000    52.03000000
   H     49.42000000    81.86000000    49.97000000
   H     47.45000000    80.79000000    52.13000000
   H     48.08000000    79.82000000    50.76000000
   H     45.16000000    81.64000000    51.80000000
   H     47.79000000    80.88000000    48.42000000
   H     43.57000000    82.53000000    50.41000000
   H     46.06000000    82.04000000    46.97000000
   H     43.17000000    83.56000000    48.16000000
   N     48.93000000    84.16000000    50.77000000
   C     48.94000000    85.55000000    51.18000000
   C     50.11000000    86.02000000    52.03000000
   O     50.32000000    87.22000000    52.20000000
   C     47.57000000    85.84000000    51.80000000
   C     46.27000000    85.27000000    51.23000000
   C     45.07000000    85.76000000    52.02000000
   O     44.75000000    86.96000000    52.09000000
   O     44.35000000    84.91000000    52.60000000
   H     49.02000000    84.04000000    49.77000000
   H     48.95000000    86.13000000    50.27000000
   H     47.50000000    86.92000000    51.74000000
   H     47.72000000    85.59000000    52.85000000
   H     46.28000000    84.18000000    51.21000000
   H     46.16000000    85.63000000    50.21000000
   N     50.97000000    85.14000000    52.55000000
   C     52.12000000    85.53000000    53.34000000
   C     53.16000000    86.20000000    52.44000000
   O     54.13000000    86.73000000    52.98000000
   C     52.73000000    84.34000000    54.08000000
   C     51.92000000    83.92000000    55.30000000
   C     51.70000000    84.91000000    56.44000000
   O     50.71000000    84.93000000    57.20000000
   O     52.63000000    85.73000000    56.63000000
   H     50.85000000    84.17000000    52.32000000
   H     51.70000000    86.26000000    54.03000000
   H     53.75000000    84.43000000    54.44000000
   H     52.73000000    83.48000000    53.41000000
   H     52.26000000    82.99000000    55.75000000
   H     50.91000000    83.68000000    54.97000000
   N     53.10000000    86.05000000    51.12000000
   C     53.92000000    86.74000000    50.14000000
   H     54.89500000    86.25700000    50.07800000
   H     53.43300000    86.70000000    49.16600000
   H     54.04900000    87.78000000    50.44100000
   H     52.32000000    85.56000000    50.72000000
  Ca     51.92000000    86.48000000    59.11000000
   O     53.63000000    88.52000000    58.33000000
   H     53.97000000    88.86000000    57.51000000
   H     54.10000000    89.01000000    59.01000000
   O     51.61000000    89.06000000    60.67000000
   H     51.29000000    89.71000000    61.30000000
   H     52.24000000    88.55000000    61.17000000
   O     50.73000000    88.19000000    57.20000000
   H     50.70000000    87.74000000    56.36000000
   H     51.07000000    89.06000000    56.99000000

Ca 1.00



