%chk=loop3.holoCaM-CaMKII.run70.water2.chk
%nprocshared=20
%mem=10GB
%nosave
#b3lyp/svp scf=(tight,noincore,xqc) Test 
#IOP(5/87=12) Density=Current Pop=(MK,readradii) iop(6/33=2) iop(6/42=6)

loop3.holoCaM-CaMKII.run70.water2 

   0  1 
   C     20.48000000    34.51000000     2.21300000
   C     20.66000000    33.03000000     2.51300000
   O     20.60000000    32.22000000     1.59300000
   H     19.60100000    34.88300000     2.74000000
   H     21.36200000    35.05800000     2.54500000
   H     20.34700000    34.65000000     1.14000000
   N     20.91000000    32.68000000     3.78300000
   C     21.02000000    31.29000000     4.15300000
   C     19.67000000    30.62000000     4.34300000
   O     18.92000000    30.97000000     5.25300000
   C     21.93000000    31.15000000     5.37300000
   C     22.07000000    29.79000000     6.04300000
   O     22.85000000    29.73000000     7.02300000
   O     21.50000000    28.76000000     5.65300000
   H     21.03000000    33.36000000     4.52300000
   H     21.54000000    30.74000000     3.37300000
   H     21.57000000    31.87000000     6.10300000
   H     22.96000000    31.26000000     5.01300000
   N     19.35000000    29.79000000     3.34300000
   C     18.01000000    29.24000000     3.22300000
   C     17.50000000    28.53000000     4.47300000
   O     16.31000000    28.33000000     4.66300000
   C     17.94000000    28.43000000     1.93300000
   C     16.51000000    28.04000000     1.57300000
   C     16.33000000    27.54000000     0.13300000
   C     14.85000000    27.34000000    -0.15700000
   N     14.69000000    26.35000000    -1.23700000
   H     20.05000000    29.29000000     2.82300000
   H     17.30000000    30.07000000     3.23300000
   H     18.54000000    27.53000000     2.07300000
   H     18.40000000    28.95000000     1.09300000
   H     15.82000000    28.88000000     1.66300000
   H     16.28000000    27.22000000     2.25300000
   H     16.92000000    26.63000000     0.08300000
   H     16.75000000    28.27000000    -0.55700000
   H     14.39000000    28.31000000    -0.32700000
   H     14.41000000    26.91000000     0.74300000
   H     13.76000000    26.29000000    -1.61700000
   H     15.41000000    26.63000000    -1.88700000
   H     15.01000000    25.42000000    -1.02700000
   N     18.40000000    28.12000000     5.36300000
   C     18.10000000    27.30000000     6.52300000
   C     18.67000000    27.90000000     7.80300000
   O     18.23000000    27.57000000     8.90300000
   C     18.55000000    25.88000000     6.17300000
   C     19.93000000    25.90000000     5.53300000
   O     20.07000000    26.10000000     4.30300000
   O     20.90000000    25.90000000     6.32300000
   H     19.37000000    28.40000000     5.26300000
   H     17.04000000    27.23000000     6.74300000
   H     17.78000000    25.60000000     5.46300000
   H     18.47000000    25.20000000     7.02300000
   N     19.54000000    28.90000000     7.65300000
   C     20.11000000    29.52000000     8.83300000
   C     21.10000000    28.69000000     9.64300000
   O     20.93000000    28.60000000    10.86300000
   H     20.05000000    29.00000000     6.79300000
   H     19.29000000    29.79000000     9.49300000
   H     20.62000000    30.42000000     8.47300000
   N     22.01000000    27.96000000     9.00300000
   C     23.10000000    27.21000000     9.60300000
   C     24.45000000    27.90000000     9.62300000
   O     25.35000000    27.32000000    10.23300000
   C     23.21000000    25.81000000     9.00300000
   C     24.04000000    25.77000000     7.73300000
   N     25.01000000    24.86000000     7.59300000
   O     23.88000000    26.58000000     6.82300000
   H     22.04000000    28.00000000     7.99300000
   H     22.92000000    27.12000000    10.67300000
   H     22.21000000    25.43000000     8.78300000
   H     23.72000000    25.12000000     9.68300000
   H     25.40000000    24.34000000     8.36300000
   H     25.55000000    24.89000000     6.74300000
   N     24.60000000    29.11000000     9.07300000
   C     25.82000000    29.90000000     9.05300000
   C     26.60000000    29.80000000     7.75300000
   O     27.76000000    30.20000000     7.72300000
   H     23.93000000    29.27000000     8.34300000
   H     26.36000000    29.81000000     9.99300000
   H     25.48000000    30.94000000     9.07300000
   N     26.01000000    29.20000000     6.72300000
   C     26.60000000    28.93000000     5.42300000
   C     25.57000000    29.14000000     4.32300000
   O     24.41000000    28.75000000     4.48300000
   C     27.18000000    27.52000000     5.50300000
   C     28.39000000    27.37000000     6.39300000
   C     29.58000000    27.90000000     5.87300000
   C     28.26000000    26.93000000     7.71300000
   C     30.67000000    27.97000000     6.76300000
   C     29.41000000    26.83000000     8.50300000
   C     30.63000000    27.37000000     8.04300000
   O     31.78000000    27.32000000     8.76300000
   H     25.05000000    28.93000000     6.89300000
   H     27.43000000    29.55000000     5.11300000
   H     27.42000000    27.22000000     4.48300000
   H     26.39000000    26.86000000     5.85300000
   H     29.60000000    28.32000000     4.88300000
   H     27.30000000    26.52000000     7.98300000
   H     31.60000000    28.33000000     6.36300000
   H     29.43000000    26.31000000     9.45300000
   H     32.44000000    27.96000000     8.47300000
   N     25.98000000    29.53000000     3.11300000
   C     25.22000000    29.68000000     1.89300000
   C     25.79000000    28.87000000     0.74300000
   O     27.00000000    28.96000000     0.54300000
   C     25.13000000    31.13000000     1.41300000
   C     24.71000000    32.12000000     2.49300000
   C     24.35000000    31.19000000     0.10300000
   C     25.02000000    33.56000000     2.09300000
   H     26.95000000    29.80000000     3.13300000
   H     24.19000000    29.35000000     2.02300000
   H     26.18000000    31.37000000     1.20300000
   H     25.12000000    31.84000000     3.46300000
   H     23.63000000    32.15000000     2.60300000
   H     24.35000000    32.21000000    -0.26700000
   H     24.88000000    30.68000000    -0.70700000
   H     23.30000000    30.92000000     0.19300000
   H     26.08000000    33.61000000     1.83300000
   H     24.48000000    33.84000000     1.19300000
   H     24.79000000    34.30000000     2.86300000
   N     24.99000000    28.07000000     0.03300000
   C     25.25000000    27.39000000    -1.21700000
   C     24.79000000    28.10000000    -2.47700000
   O     23.95000000    29.00000000    -2.42700000
   C     24.74000000    25.95000000    -1.13700000
   O     24.88000000    25.32000000     0.11300000
   H     24.13000000    27.80000000     0.47300000
   H     26.34000000    27.32000000    -1.31700000
   H     25.19000000    25.37000000    -1.93700000
   H     23.65000000    25.96000000    -1.25700000
   H     24.20000000    25.76000000     0.62300000
   N     25.17000000    27.55000000    -3.63700000
   C     24.75000000    28.00000000    -4.94700000
   C     23.24000000    28.02000000    -5.09700000
   O     22.65000000    29.04000000    -5.45700000
   C     25.39000000    27.10000000    -6.00700000
   H     25.78000000    26.75000000    -3.59700000
   H     25.06000000    29.02000000    -5.14700000
   H     25.03000000    26.07000000    -5.94700000
   H     25.24000000    27.55000000    -6.98700000
   H     26.48000000    27.22000000    -5.93700000
   N     22.51000000    26.95000000    -4.76700000
   C     21.07000000    26.84000000    -4.87700000
   C     20.34000000    27.70000000    -3.85700000
   O     19.31000000    28.27000000    -4.21700000
   C     20.89000000    25.33000000    -4.74700000
   H     22.97000000    26.09000000    -4.49700000
   H     20.69000000    27.06000000    -5.87700000
   H     21.30000000    25.01000000    -3.78700000
   H     19.81000000    25.17000000    -4.68700000
   H     21.38000000    24.72000000    -5.50700000
   N     20.98000000    27.92000000    -2.70700000
   C     20.56000000    28.93000000    -1.75700000
   C     20.71000000    30.36000000    -2.26700000
   O     19.83000000    31.20000000    -2.13700000
   C     21.32000000    28.75000000    -0.44700000
   C     21.18000000    27.41000000     0.26300000
   C     22.06000000    27.31000000     1.50300000
   O     21.82000000    27.95000000     2.55300000
   O     23.16000000    26.72000000     1.51300000
   H     21.92000000    27.56000000    -2.59700000
   H     19.50000000    28.84000000    -1.54700000
   H     20.98000000    29.56000000     0.20300000
   H     22.37000000    28.88000000    -0.71700000
   H     21.22000000    26.51000000    -0.34700000
   H     20.17000000    27.38000000     0.67300000
   N     21.78000000    30.63000000    -3.02700000
   C     22.02000000    31.88000000    -3.71700000
   H     23.02500000    31.87500000    -4.13800000
   H     21.29100000    31.99900000    -4.51900000
   H     21.92500000    32.70800000    -3.01400000
   H     22.49000000    29.91000000    -2.97700000
  Ca     22.70000000    26.81000000     4.56000000
   O     22.64000000    24.11000000     4.19000000
   H     22.28000000    23.75000000     3.38000000
   H     22.80000000    23.35000000     4.75000000
   O     25.05000000    25.80000000     3.88000000
   H     25.57000000    26.15000000     3.16000000
   H     25.58000000    25.10000000     4.24000000

Ca 1.00



