%chk=loop1.apoCaM-CA-Ng.Init295.run55.water5.chk
%nprocshared=20
%mem=10GB
%nosave
#b3lyp/svp scf=(tight,noincore,xqc) Test 
#IOP(5/87=12) Density=Current Pop=(MK,readradii) iop(6/33=2) iop(6/42=6)

loop1.apoCaM-CA-Ng.Init295.run55.water5 

   0  1 
   C     76.79000000    94.05000000    43.62000000
   C     77.06000000    95.48000000    43.18000000
   O     76.22000000    96.36000000    43.03000000
   H     75.81200000    93.73700000    43.25600000
   H     77.55700000    93.39200000    43.21100000
   H     76.80600000    93.99500000    44.70800000
   N     78.34000000    95.79000000    42.96000000
   C     78.94000000    97.05000000    42.57000000
   C     78.49000000    97.56000000    41.21000000
   O     79.06000000    97.19000000    40.19000000
   C     80.44000000    96.77000000    42.60000000
   C     81.25000000    98.01000000    42.25000000
   O     80.73000000    99.14000000    42.24000000
   O     82.47000000    97.81000000    42.08000000
   H     78.99000000    95.04000000    43.17000000
   H     78.66000000    97.85000000    43.26000000
   H     80.61000000    96.01000000    41.83000000
   H     80.66000000    96.37000000    43.58000000
   N     77.57000000    98.52000000    41.21000000
   C     77.15000000    99.19000000    39.99000000
   C     78.22000000   100.04000000    39.32000000
   O     77.87000000   100.50000000    38.24000000
   C     75.98000000   100.11000000    40.31000000
   C     76.35000000   101.16000000    41.36000000
   C     75.26000000   102.14000000    41.76000000
   C     74.24000000   101.68000000    42.80000000
   N     73.22000000   102.67000000    43.16000000
   H     77.04000000    98.83000000    42.01000000
   H     76.71000000    98.45000000    39.33000000
   H     75.17000000    99.49000000    40.70000000
   H     75.49000000   100.51000000    39.42000000
   H     77.14000000   101.78000000    40.94000000
   H     76.71000000   100.64000000    42.24000000
   H     74.70000000   102.36000000    40.85000000
   H     75.78000000   103.00000000    42.20000000
   H     74.83000000   101.33000000    43.64000000
   H     73.59000000   100.91000000    42.37000000
   H     72.62000000   102.93000000    42.39000000
   H     72.58000000   102.35000000    43.88000000
   H     73.67000000   103.54000000    43.43000000
   N     79.42000000   100.34000000    39.83000000
   C     80.44000000   101.13000000    39.18000000
   C     81.55000000   100.28000000    38.58000000
   O     82.07000000   100.53000000    37.50000000
   C     81.09000000   102.00000000    40.26000000
   C     82.17000000   102.96000000    39.79000000
   O     82.35000000   103.21000000    38.58000000
   O     82.84000000   103.45000000    40.72000000
   H     79.60000000   100.01000000    40.77000000
   H     80.03000000   101.69000000    38.34000000
   H     81.55000000   101.38000000    41.03000000
   H     80.35000000   102.62000000    40.77000000
   N     81.86000000    99.16000000    39.24000000
   C     82.43000000    97.99000000    38.60000000
   C     83.96000000    97.99000000    38.65000000
   O     84.58000000    97.13000000    38.03000000
   H     81.42000000    99.09000000    40.15000000
   H     82.29000000    98.09000000    37.53000000
   H     82.05000000    97.13000000    39.16000000
   N     84.53000000    98.95000000    39.38000000
   C     85.94000000    99.25000000    39.30000000
   C     86.74000000    98.70000000    40.47000000
   O     87.82000000    99.17000000    40.85000000
   C     86.25000000   100.70000000    38.93000000
   C     85.49000000   101.26000000    37.74000000
   O     84.97000000   100.52000000    36.86000000
   O     85.34000000   102.50000000    37.66000000
   H     83.93000000    99.58000000    39.89000000
   H     86.27000000    98.63000000    38.46000000
   H     87.31000000   100.82000000    38.67000000
   H     86.18000000   101.34000000    39.80000000
   N     86.08000000    97.82000000    41.22000000
   C     86.32000000    97.35000000    42.57000000
   C     87.30000000    96.19000000    42.72000000
   O     87.79000000    95.63000000    41.75000000
   H     85.22000000    97.52000000    40.78000000
   H     85.38000000    96.97000000    42.97000000
   H     86.62000000    98.15000000    43.24000000
   N     87.58000000    95.86000000    43.98000000
   C     88.55000000    94.91000000    44.48000000
   C     89.98000000    95.34000000    44.19000000
   O     90.30000000    96.52000000    44.03000000
   C     88.30000000    94.38000000    45.89000000
   C     88.33000000    95.44000000    46.99000000
   O     87.04000000    93.76000000    45.89000000
   H     87.00000000    96.34000000    44.66000000
   H     88.40000000    94.00000000    43.90000000
   H     89.14000000    93.74000000    46.15000000
   H     86.92000000    93.34000000    46.75000000
   H     88.74000000    94.97000000    47.88000000
   H     88.89000000    96.30000000    46.62000000
   H     87.30000000    95.72000000    47.21000000
   N     90.89000000    94.37000000    44.02000000
   C     92.32000000    94.57000000    44.11000000
   C     93.11000000    93.84000000    43.02000000
   O     94.33000000    93.83000000    43.07000000
   C     92.70000000    94.20000000    45.54000000
   C     92.48000000    92.72000000    45.84000000
   C     92.07000000    95.18000000    46.52000000
   C     93.55000000    92.25000000    46.83000000
   H     90.53000000    93.43000000    44.09000000
   H     92.52000000    95.64000000    43.97000000
   H     93.75000000    94.50000000    45.61000000
   H     92.56000000    92.06000000    44.98000000
   H     91.52000000    92.61000000    46.35000000
   H     92.63000000    95.27000000    47.45000000
   H     92.00000000    96.23000000    46.23000000
   H     91.08000000    94.85000000    46.83000000
   H     94.52000000    92.43000000    46.38000000
   H     93.44000000    92.76000000    47.78000000
   H     93.31000000    91.20000000    47.03000000
   N     92.39000000    93.22000000    42.08000000
   C     92.89000000    92.71000000    40.82000000
   C     92.55000000    91.24000000    40.63000000
   O     91.42000000    90.77000000    40.78000000
   C     92.52000000    93.56000000    39.61000000
   C     92.86000000    95.05000000    39.70000000
   O     93.26000000    93.20000000    38.47000000
   H     91.42000000    93.49000000    42.09000000
   H     93.98000000    92.73000000    40.83000000
   H     91.45000000    93.48000000    39.42000000
   H     93.84000000    93.92000000    38.21000000
   H     92.24000000    95.47000000    40.49000000
   H     93.90000000    95.18000000    40.01000000
   H     92.67000000    95.56000000    38.75000000
   N     93.51000000    90.36000000    40.35000000
   C     93.38000000    88.91000000    40.36000000
   C     93.32000000    88.27000000    41.74000000
   O     92.65000000    87.27000000    41.96000000
   C     94.46000000    88.24000000    39.52000000
   C     94.40000000    86.72000000    39.37000000
   O     95.71000000    88.52000000    40.10000000
   H     94.44000000    90.73000000    40.46000000
   H     92.47000000    88.70000000    39.79000000
   H     94.39000000    88.71000000    38.54000000
   H     96.34000000    88.32000000    39.40000000
   H     95.02000000    86.50000000    38.51000000
   H     94.84000000    86.30000000    40.28000000
   H     93.40000000    86.33000000    39.17000000
   N     93.82000000    88.98000000    42.76000000
   C     93.73000000    88.54000000    44.13000000
   C     92.30000000    88.64000000    44.66000000
   O     91.60000000    89.60000000    44.35000000
   C     94.59000000    89.37000000    45.08000000
   C     96.09000000    89.08000000    45.03000000
   C     96.94000000    89.99000000    45.92000000
   C     96.50000000    89.74000000    47.36000000
   N     97.35000000    90.37000000    48.38000000
   H     94.36000000    89.82000000    42.62000000
   H     94.01000000    87.48000000    44.17000000
   H     94.18000000    89.26000000    46.08000000
   H     94.41000000    90.42000000    44.84000000
   H     96.44000000    89.18000000    44.00000000
   H     96.19000000    88.03000000    45.28000000
   H     96.89000000    91.03000000    45.62000000
   H     97.98000000    89.70000000    45.78000000
   H     96.42000000    88.69000000    47.64000000
   H     95.47000000    90.08000000    47.45000000
   H     97.50000000    91.36000000    48.24000000
   H     96.92000000    90.27000000    49.29000000
   H     98.18000000    89.81000000    48.44000000
   N     91.90000000    87.75000000    45.57000000
   C     90.58000000    87.67000000    46.16000000
   C     89.97000000    86.28000000    46.16000000
   O     90.61000000    85.33000000    46.61000000
   C     90.69000000    88.30000000    47.55000000
   C     90.45000000    89.80000000    47.57000000
   C     90.30000000    90.26000000    49.01000000
   O     91.24000000    90.10000000    49.83000000
   O     89.24000000    90.87000000    49.28000000
   H     92.52000000    87.00000000    45.83000000
   H     89.91000000    88.33000000    45.61000000
   H     91.72000000    88.19000000    47.89000000
   H     90.04000000    87.79000000    48.26000000
   H     89.61000000    90.20000000    47.00000000
   H     91.33000000    90.29000000    47.17000000
   N     88.70000000    86.01000000    45.84000000
   C     87.63000000    86.89000000    45.43000000
   H     86.77900000    86.76300000    46.10000000
   H     87.97300000    87.92400000    45.47100000
   H     87.32900000    86.64700000    44.41100000
   H     88.46000000    85.03000000    45.77000000
  Ca     83.21000000   102.56400000    36.17000000
   O     82.52000000   103.37400000    33.73000000
   H     82.84000000   103.98400000    33.07000000
   H     82.01000000   102.73400000    33.23000000
   O     81.93000000   100.59400000    34.58000000
   H     81.68000000   100.83400000    33.69000000
   H     82.16000000    99.67400000    34.53000000
   O     83.79000000   105.25400000    36.06000000
   H     83.27000000   105.97400000    35.68000000
   H     84.70000000   105.48400000    35.85000000
   O     85.42000000   102.66400000    34.65000000
   H     85.89000000   102.55400000    33.82000000
   H     86.11000000   102.82400000    35.29000000
   O     80.61000000   103.48400000    36.29000000
   H     79.90000000   103.55400000    35.64000000
   H     80.39000000   104.14400000    36.95000000

Ca 1.00



