%chk=loop4.holoCaM-CaMKII.run46.water2.chk
%nprocshared=20
%mem=10GB
%nosave
#b3lyp/svp scf=(tight,noincore,xqc) Test 
#IOP(5/87=12) Density=Current Pop=(MK,readradii) iop(6/33=2) iop(6/42=6)

loop4.holoCaM-CaMKII.run46.water2 

   -3  1 
   C     18.94000000    51.33000000    13.09000000
   C     19.59000000    52.62000000    13.56000000
   O     19.05000000    53.68000000    13.28000000
   H     18.00000000    51.55900000    12.58800000
   H     19.60700000    50.81800000    12.39600000
   H     18.74500000    50.68700000    13.94800000
   N     20.68000000    52.48000000    14.33000000
   C     21.56000000    53.59000000    14.62000000
   C     22.23000000    54.11000000    13.36000000
   O     22.93000000    53.33000000    12.72000000
   C     22.56000000    53.20000000    15.71000000
   C     23.61000000    54.25000000    16.03000000
   O     24.76000000    53.89000000    16.36000000
   O     23.36000000    55.47000000    15.94000000
   H     21.00000000    51.54000000    14.50000000
   H     20.90000000    54.33000000    15.07000000
   H     23.03000000    52.32000000    15.27000000
   H     22.02000000    52.88000000    16.61000000
   N     22.09000000    55.38000000    12.98000000
   C     22.69000000    55.93000000    11.78000000
   C     23.99000000    56.66000000    12.08000000
   O     24.85000000    56.71000000    11.20000000
   C     21.65000000    56.84000000    11.13000000
   C     20.38000000    56.08000000    10.78000000
   C     22.21000000    57.65000000     9.97000000
   C     19.26000000    56.67000000     9.93000000
   H     21.58000000    56.06000000    13.52000000
   H     22.93000000    55.08000000    11.15000000
   H     21.40000000    57.57000000    11.90000000
   H     19.93000000    55.69000000    11.69000000
   H     20.74000000    55.25000000    10.16000000
   H     22.92000000    58.41000000    10.27000000
   H     22.59000000    56.91000000     9.27000000
   H     21.48000000    58.24000000     9.40000000
   H     19.64000000    56.95000000     8.95000000
   H     18.51000000    55.92000000     9.69000000
   H     18.71000000    57.44000000    10.48000000
   N     24.24000000    57.07000000    13.33000000
   C     25.44000000    57.79000000    13.70000000
   C     26.63000000    56.89000000    13.96000000
   O     27.74000000    57.35000000    13.67000000
   C     25.27000000    58.65000000    14.95000000
   C     23.98000000    59.46000000    14.95000000
   O     23.86000000    60.50000000    14.27000000
   O     23.01000000    58.99000000    15.60000000
   H     23.65000000    56.72000000    14.07000000
   H     25.68000000    58.49000000    12.89000000
   H     26.01000000    59.44000000    14.82000000
   H     25.38000000    58.07000000    15.87000000
   N     26.37000000    55.83000000    14.72000000
   C     27.40000000    54.92000000    15.18000000
   C     27.86000000    55.12000000    16.62000000
   O     28.79000000    54.44000000    17.06000000
   H     25.44000000    55.65000000    15.06000000
   H     28.31000000    55.04000000    14.60000000
   H     26.99000000    53.93000000    15.01000000
   N     27.11000000    55.89000000    17.41000000
   C     27.09000000    55.97000000    18.86000000
   C     26.66000000    54.70000000    19.59000000
   O     26.81000000    54.59000000    20.80000000
   C     26.28000000    57.17000000    19.32000000
   C     24.90000000    57.23000000    18.69000000
   O     24.39000000    58.26000000    18.20000000
   O     24.18000000    56.21000000    18.77000000
   H     26.37000000    56.37000000    16.91000000
   H     28.12000000    56.09000000    19.20000000
   H     26.86000000    58.04000000    19.00000000
   H     26.33000000    57.20000000    20.41000000
   N     26.05000000    53.77000000    18.85000000
   C     25.58000000    52.45000000    19.24000000
   C     24.15000000    52.38000000    19.76000000
   O     23.80000000    51.40000000    20.41000000
   H     25.81000000    54.07000000    17.92000000
   H     26.30000000    51.99000000    19.92000000
   H     25.65000000    51.85000000    18.33000000
   N     23.32000000    53.41000000    19.59000000
   C     21.96000000    53.41000000    20.08000000
   C     20.94000000    54.11000000    19.19000000
   O     21.33000000    54.97000000    18.40000000
   C     21.86000000    53.99000000    21.49000000
   C     22.64000000    53.44000000    22.69000000
   C     24.11000000    53.84000000    22.71000000
   N     24.47000000    55.10000000    22.45000000
   O     25.01000000    53.00000000    22.74000000
   H     23.49000000    54.20000000    18.99000000
   H     21.61000000    52.38000000    20.09000000
   H     20.82000000    53.74000000    21.69000000
   H     21.94000000    55.07000000    21.56000000
   H     22.47000000    52.37000000    22.75000000
   H     22.20000000    53.92000000    23.57000000
   H     23.93000000    55.90000000    22.77000000
   H     25.42000000    55.36000000    22.26000000
   N     19.69000000    53.64000000    19.27000000
   C     18.62000000    53.95000000    18.35000000
   C     17.61000000    54.81000000    19.10000000
   O     16.97000000    54.31000000    20.02000000
   C     17.88000000    52.66000000    18.01000000
   C     16.60000000    52.88000000    17.22000000
   C     18.81000000    51.64000000    17.34000000
   H     19.40000000    53.06000000    20.04000000
   H     18.96000000    54.49000000    17.46000000
   H     17.65000000    52.18000000    18.96000000
   H     16.22000000    51.94000000    16.81000000
   H     15.81000000    53.39000000    17.77000000
   H     16.77000000    53.53000000    16.36000000
   H     19.28000000    52.15000000    16.50000000
   H     19.60000000    51.32000000    18.02000000
   H     18.28000000    50.74000000    17.00000000
   N     17.41000000    56.06000000    18.67000000
   C     16.38000000    56.99000000    19.09000000
   C     15.07000000    56.55000000    18.45000000
   O     15.03000000    55.80000000    17.47000000
   C     16.83000000    58.40000000    18.73000000
   C     15.84000000    59.49000000    19.10000000
   N     15.68000000    59.82000000    20.38000000
   O     15.21000000    59.98000000    18.16000000
   H     17.96000000    56.35000000    17.87000000
   H     16.23000000    56.92000000    20.17000000
   H     16.99000000    58.44000000    17.65000000
   H     17.75000000    58.74000000    19.20000000
   H     16.15000000    59.27000000    21.09000000
   H     15.13000000    60.57000000    20.76000000
   N     13.95000000    57.10000000    18.92000000
   C     12.73000000    56.88000000    18.17000000
   C     12.76000000    57.41000000    16.75000000
   O     12.05000000    56.86000000    15.90000000
   C     11.62000000    57.52000000    18.99000000
   C     10.21000000    57.40000000    18.46000000
   C      9.48000000    56.21000000    18.64000000
   C      9.68000000    58.44000000    17.69000000
   C      8.21000000    56.06000000    18.08000000
   C      8.37000000    58.33000000    17.21000000
   C      7.63000000    57.14000000    17.39000000
   O      6.42000000    56.84000000    16.83000000
   H     13.95000000    57.88000000    19.56000000
   H     12.62000000    55.79000000    18.09000000
   H     11.85000000    58.58000000    19.10000000
   H     11.70000000    57.08000000    19.98000000
   H      9.89000000    55.39000000    19.21000000
   H     10.31000000    59.30000000    17.47000000
   H      7.68000000    55.12000000    18.16000000
   H      7.98000000    59.21000000    16.72000000
   H      5.98000000    57.55000000    16.37000000
   N     13.41000000    58.55000000    16.52000000
   C     13.49000000    59.13000000    15.19000000
   C     14.27000000    58.17000000    14.31000000
   O     14.02000000    58.02000000    13.12000000
   C     14.10000000    60.52000000    15.30000000
   C     13.91000000    61.26000000    13.97000000
   C     14.33000000    62.67000000    14.35000000
   O     13.42000000    63.45000000    14.72000000
   O     15.54000000    62.99000000    14.33000000
   H     14.02000000    58.97000000    17.21000000
   H     12.56000000    59.22000000    14.62000000
   H     15.16000000    60.51000000    15.55000000
   H     13.50000000    61.00000000    16.08000000
   H     12.91000000    61.18000000    13.55000000
   H     14.64000000    60.89000000    13.25000000
   N     15.27000000    57.49000000    14.88000000
   C     15.93000000    56.43000000    14.13000000
   C     15.09000000    55.17000000    14.00000000
   O     15.19000000    54.43000000    13.03000000
   C     17.24000000    55.97000000    14.76000000
   C     18.35000000    56.98000000    14.50000000
   C     19.55000000    56.93000000    15.44000000
   O     20.70000000    57.12000000    15.00000000
   O     19.39000000    56.73000000    16.66000000
   H     15.46000000    57.73000000    15.84000000
   H     16.12000000    56.66000000    13.08000000
   H     17.48000000    54.95000000    14.46000000
   H     17.11000000    55.98000000    15.85000000
   H     17.92000000    57.97000000    14.66000000
   H     18.73000000    56.91000000    13.48000000
   N     14.16000000    54.92000000    14.93000000
   C     13.35000000    53.72000000    14.91000000
   H     12.41000000    53.92600000    14.39900000
   H     13.88400000    52.92900000    14.38300000
   H     13.14500000    53.40200000    15.93200000
   H     14.17000000    55.44000000    15.79000000
  Ca     22.06000000    57.12000000    17.17000000
   O     21.80000000    57.29000000    20.03000000
   H     22.60000000    56.83000000    20.29000000
   H     21.66000000    57.93000000    20.72000000
   O     20.96000000    59.49000000    17.57000000
   H     21.57000000    59.97000000    17.01000000
   H     20.10000000    59.81000000    17.33000000

Ca 1.00



