%chk=loop3.holoCaM.run28.water2.chk
%nprocshared=20
%mem=10GB
%nosave
#b3lyp/svp scf=(tight,noincore,xqc) Test 
#IOP(5/87=12) Density=Current Pop=(MK,readradii) iop(6/33=2) iop(6/42=6)

loop3.holoCaM.run28.water2 

   0  1 
   C     80.00000000    29.95000000   102.82300000
   C     81.26000000    30.21000000   102.02300000
   O     82.09000000    29.30000000   101.92300000
   H     79.17800000    29.72700000   102.14300000
   H     80.16000000    29.10200000   103.48900000
   H     79.75400000    30.83300000   103.41200000
   N     81.54000000    31.45000000   101.61300000
   C     82.81000000    31.95000000   101.12300000
   C     83.85000000    31.87000000   102.23300000
   O     83.59000000    32.25000000   103.36300000
   C     82.57000000    33.36000000   100.61300000
   C     83.77000000    33.99000000    99.93300000
   O     84.71000000    33.22000000    99.61300000
   O     83.78000000    35.23000000    99.77300000
   H     80.90000000    32.17000000   101.92300000
   H     83.15000000    31.34000000   100.28300000
   H     82.34000000    34.00000000   101.46300000
   H     81.73000000    33.28000000    99.92300000
   N     85.06000000    31.37000000   101.96300000
   C     86.13000000    31.13000000   102.92300000
   C     87.40000000    31.96000000   102.84300000
   O     88.15000000    32.03000000   103.82300000
   C     86.38000000    29.63000000   102.96300000
   C     87.57000000    28.95000000   103.64300000
   C     87.56000000    29.02000000   105.16300000
   C     88.68000000    28.11000000   105.67300000
   N     88.86000000    28.24000000   107.12300000
   H     85.23000000    30.98000000   101.04300000
   H     85.75000000    31.38000000   103.91300000
   H     86.43000000    29.36000000   101.91300000
   H     85.51000000    29.17000000   103.43300000
   H     88.44000000    29.47000000   103.26300000
   H     87.44000000    27.90000000   103.37300000
   H     86.55000000    28.79000000   105.50300000
   H     87.74000000    30.07000000   105.40300000
   H     89.65000000    28.34000000   105.23300000
   H     88.50000000    27.09000000   105.34300000
   H     89.60000000    27.72000000   107.58300000
   H     88.96000000    29.20000000   107.40300000
   H     88.02000000    27.91000000   107.58300000
   N     87.62000000    32.71000000   101.76300000
   C     88.69000000    33.68000000   101.68300000
   C     88.15000000    35.10000000   101.73300000
   O     88.96000000    36.00000000   101.95300000
   C     89.66000000    33.48000000   100.51300000
   C     89.07000000    33.71000000    99.12300000
   O     89.73000000    34.16000000    98.16300000
   O     87.84000000    33.65000000    98.93300000
   H     86.92000000    32.76000000   101.03300000
   H     89.25000000    33.65000000   102.61300000
   H     90.12000000    32.50000000   100.57300000
   H     90.53000000    34.14000000   100.57300000
   N     86.84000000    35.31000000   101.63300000
   C     86.18000000    36.60000000   101.72300000
   C     86.06000000    37.33000000   100.39300000
   O     85.90000000    38.54000000   100.44300000
   H     86.22000000    34.54000000   101.43300000
   H     86.75000000    37.24000000   102.39300000
   H     85.17000000    36.41000000   102.09300000
   N     86.35000000    36.69000000    99.25300000
   C     86.47000000    37.34000000    97.96300000
   C     85.18000000    37.57000000    97.18300000
   O     85.24000000    38.08000000    96.06300000
   C     87.66000000    36.78000000    97.19300000
   C     87.28000000    35.73000000    96.16300000
   N     87.88000000    35.70000000    94.96300000
   O     86.47000000    34.89000000    96.55300000
   H     86.34000000    35.68000000    99.24300000
   H     86.65000000    38.40000000    98.15300000
   H     88.36000000    36.38000000    97.93300000
   H     88.05000000    37.66000000    96.69300000
   H     88.62000000    36.37000000    94.79300000
   H     87.60000000    34.97000000    94.32300000
   N     84.02000000    37.15000000    97.67300000
   C     82.73000000    37.39000000    97.05300000
   C     82.22000000    36.37000000    96.04300000
   O     81.23000000    36.66000000    95.37300000
   H     84.04000000    36.63000000    98.54300000
   H     82.79000000    38.30000000    96.45300000
   H     81.99000000    37.65000000    97.80300000
   N     82.90000000    35.24000000    95.87300000
   C     82.63000000    34.23000000    94.87300000
   C     82.94000000    32.86000000    95.46300000
   O     83.94000000    32.68000000    96.15300000
   C     83.54000000    34.45000000    93.67300000
   C     83.46000000    35.77000000    92.93300000
   C     84.53000000    36.67000000    92.94300000
   C     82.42000000    35.88000000    92.01300000
   C     84.58000000    37.70000000    91.99300000
   C     82.36000000    37.04000000    91.22300000
   C     83.46000000    37.92000000    91.17300000
   O     83.49000000    39.04000000    90.39300000
   H     83.61000000    35.00000000    96.55300000
   H     81.60000000    34.24000000    94.50300000
   H     83.53000000    33.61000000    92.97300000
   H     84.58000000    34.31000000    93.94300000
   H     85.43000000    36.49000000    93.51300000
   H     81.63000000    35.14000000    91.97300000
   H     85.43000000    38.36000000    91.90300000
   H     81.52000000    37.27000000    90.58300000
   H     82.74000000    39.07000000    89.79300000
   N     82.04000000    31.92000000    95.18300000
   C     82.05000000    30.56000000    95.67300000
   C     82.62000000    29.62000000    94.62300000
   O     82.32000000    29.66000000    93.43300000
   C     80.60000000    30.23000000    96.03300000
   C     79.74000000    31.15000000    96.89300000
   C     80.50000000    28.83000000    96.62300000
   C     80.28000000    31.43000000    98.29300000
   H     81.21000000    32.22000000    94.68300000
   H     82.61000000    30.52000000    96.61300000
   H     80.04000000    30.09000000    95.10300000
   H     78.81000000    30.62000000    97.13300000
   H     79.54000000    32.12000000    96.44300000
   H     79.50000000    28.64000000    97.00300000
   H     80.85000000    28.03000000    95.96300000
   H     81.17000000    28.71000000    97.47300000
   H     81.27000000    31.88000000    98.20300000
   H     79.59000000    32.09000000    98.80300000
   H     80.42000000    30.55000000    98.91300000
   N     83.56000000    28.79000000    95.09300000
   C     84.40000000    27.87000000    94.36300000
   C     83.99000000    26.45000000    94.73300000
   O     83.33000000    26.32000000    95.76300000
   C     85.91000000    28.06000000    94.57300000
   O     86.24000000    27.92000000    95.93300000
   H     83.74000000    28.92000000    96.08300000
   H     84.15000000    28.04000000    93.31300000
   H     86.25000000    29.02000000    94.19300000
   H     86.28000000    27.22000000    93.97300000
   H     85.90000000    28.68000000    96.41300000
   N     84.35000000    25.43000000    93.94300000
   C     83.62000000    24.19000000    94.11300000
   C     84.04000000    23.43000000    95.36300000
   O     83.22000000    22.77000000    95.99300000
   C     83.76000000    23.37000000    92.83300000
   H     84.90000000    25.69000000    93.13300000
   H     82.56000000    24.40000000    94.22300000
   H     84.78000000    23.09000000    92.57300000
   H     83.17000000    22.50000000    93.12300000
   H     83.35000000    24.05000000    92.09300000
   N     85.24000000    23.66000000    95.89300000
   C     85.77000000    23.21000000    97.16300000
   C     84.91000000    23.94000000    98.19300000
   O     84.51000000    23.30000000    99.15300000
   C     87.27000000    23.46000000    97.21300000
   H     85.89000000    24.17000000    95.30300000
   H     85.54000000    22.15000000    97.26300000
   H     87.38000000    24.49000000    96.88300000
   H     87.65000000    23.28000000    98.22300000
   H     87.69000000    22.71000000    96.54300000
   N     84.69000000    25.26000000    98.12300000
   C     83.90000000    26.00000000    99.08300000
   C     82.44000000    25.57000000    99.08300000
   O     81.86000000    25.34000000   100.14300000
   C     84.00000000    27.50000000    98.82300000
   C     85.34000000    28.17000000    99.10300000
   C     85.31000000    29.60000000    98.57300000
   O     85.34000000    30.53000000    99.40300000
   O     85.16000000    29.93000000    97.38300000
   H     84.96000000    25.75000000    97.28300000
   H     84.32000000    25.81000000   100.07300000
   H     83.38000000    28.04000000    99.53300000
   H     83.52000000    27.73000000    97.87300000
   H     86.16000000    27.68000000    98.56300000
   H     85.50000000    28.06000000   100.17300000
   N     81.87000000    25.20000000    97.93300000
   C     80.50000000    24.76000000    97.77300000
   H     79.87700000    25.60900000    97.49000000
   H     80.45100000    23.99800000    96.99500000
   H     80.13900000    24.34300000    98.71300000
   H     82.40000000    25.27000000    97.07300000
  Ca     86.10000000    32.30000000    97.70000000
   O     86.57000000    31.68000000    95.21000000
   H     87.44000000    31.30000000    95.04000000
   H     86.10000000    31.56000000    94.39000000
   O     88.23000000    30.75000000    98.01000000
   H     88.80000000    30.38000000    97.34000000
   H     88.54000000    30.38000000    98.83000000

Ca 1.00



