%chk=loop1.apoCaM-CA-Ng.Init31.run60.water4.chk
%nprocshared=20
%mem=10GB
%nosave
#b3lyp/svp scf=(tight,noincore,xqc) Test 
#IOP(5/87=12) Density=Current Pop=(MK,readradii) iop(6/33=2) iop(6/42=6)

loop1.apoCaM-CA-Ng.Init31.run60.water4 

   0  1 
   C     74.83000000    76.74000000    14.65000000
   C     74.04000000    77.60000000    13.69000000
   O     74.28000000    78.81000000    13.70000000
   H     75.74100000    77.26300000    14.94000000
   H     74.22900000    76.53900000    15.53700000
   H     75.09000000    75.79900000    14.16600000
   N     73.19000000    77.01000000    12.85000000
   C     72.43000000    77.62000000    11.78000000
   C     70.94000000    77.30000000    11.90000000
   O     70.54000000    76.44000000    12.68000000
   C     73.05000000    77.29000000    10.43000000
   C     72.38000000    78.00000000     9.26000000
   O     71.85000000    79.12000000     9.39000000
   O     72.37000000    77.43000000     8.15000000
   H     72.98000000    76.03000000    12.97000000
   H     72.52000000    78.70000000    11.90000000
   H     72.94000000    76.22000000    10.28000000
   H     74.12000000    77.49000000    10.51000000
   N     70.13000000    78.13000000    11.24000000
   C     68.68000000    78.20000000    11.35000000
   C     68.00000000    76.88000000    11.03000000
   O     67.36000000    76.44000000    11.99000000
   C     68.21000000    79.48000000    10.68000000
   C     66.77000000    79.46000000    10.16000000
   C     65.74000000    79.58000000    11.29000000
   C     64.29000000    79.66000000    10.84000000
   N     63.36000000    79.58000000    11.98000000
   H     70.59000000    78.86000000    10.73000000
   H     68.47000000    78.36000000    12.41000000
   H     68.87000000    79.73000000     9.85000000
   H     68.35000000    80.38000000    11.28000000
   H     66.63000000    78.55000000     9.58000000
   H     66.62000000    80.21000000     9.39000000
   H     66.03000000    80.53000000    11.73000000
   H     65.91000000    78.80000000    12.03000000
   H     64.18000000    78.81000000    10.17000000
   H     64.13000000    80.62000000    10.35000000
   H     63.48000000    78.75000000    12.55000000
   H     63.60000000    80.31000000    12.64000000
   H     62.40000000    79.72000000    11.70000000
   N     68.16000000    76.19000000     9.90000000
   C     69.05000000    76.38000000     8.77000000
   C     69.62000000    75.09000000     8.21000000
   O     68.97000000    74.05000000     8.24000000
   C     68.37000000    77.24000000     7.70000000
   C     69.24000000    77.40000000     6.47000000
   O     70.05000000    78.35000000     6.50000000
   O     69.04000000    76.63000000     5.50000000
   H     67.81000000    75.25000000    10.02000000
   H     69.92000000    77.00000000     9.02000000
   H     68.10000000    78.16000000     8.21000000
   H     67.42000000    76.75000000     7.46000000
   N     70.87000000    75.10000000     7.74000000
   C     71.43000000    74.00000000     6.98000000
   C     72.90000000    74.18000000     6.63000000
   O     73.63000000    74.49000000     7.57000000
   H     71.48000000    75.90000000     7.82000000
   H     70.93000000    74.01000000     6.02000000
   H     71.26000000    73.04000000     7.47000000
   N     73.33000000    73.94000000     5.39000000
   C     74.72000000    74.15000000     5.03000000
   C     75.25000000    72.98000000     4.21000000
   O     74.45000000    72.16000000     3.77000000
   C     74.78000000    75.45000000     4.24000000
   C     73.93000000    76.59000000     4.77000000
   O     74.47000000    77.31000000     5.63000000
   O     72.81000000    76.87000000     4.27000000
   H     72.85000000    73.40000000     4.69000000
   H     75.22000000    74.14000000     6.00000000
   H     74.47000000    75.25000000     3.21000000
   H     75.84000000    75.70000000     4.19000000
   N     76.58000000    72.88000000     4.08000000
   C     77.54000000    73.77000000     4.70000000
   C     78.30000000    74.62000000     3.69000000
   O     79.24000000    75.27000000     4.15000000
   H     76.93000000    72.12000000     3.52000000
   H     78.34000000    73.21000000     5.20000000
   H     77.17000000    74.37000000     5.53000000
   N     78.05000000    74.65000000     2.38000000
   C     78.99000000    75.14000000     1.39000000
   C     80.24000000    74.28000000     1.40000000
   O     81.39000000    74.71000000     1.43000000
   C     79.29000000    76.63000000     1.43000000
   C     78.04000000    77.51000000     1.45000000
   O     79.91000000    77.00000000     0.22000000
   H     77.27000000    74.12000000     2.01000000
   H     78.48000000    74.98000000     0.44000000
   H     79.88000000    76.96000000     2.29000000
   H     80.83000000    77.03000000     0.49000000
   H     77.42000000    77.30000000     2.32000000
   H     78.24000000    78.58000000     1.46000000
   H     77.37000000    77.25000000     0.63000000
   N     80.11000000    72.95000000     1.46000000
   C     81.15000000    71.94000000     1.37000000
   C     81.94000000    71.84000000     0.07000000
   O     81.92000000    70.82000000    -0.61000000
   C     82.00000000    72.01000000     2.63000000
   C     81.19000000    71.75000000     3.89000000
   C     83.21000000    71.08000000     2.57000000
   C     81.95000000    71.97000000     5.20000000
   H     79.16000000    72.61000000     1.44000000
   H     80.72000000    70.95000000     1.49000000
   H     82.37000000    73.04000000     2.65000000
   H     80.78000000    70.74000000     3.89000000
   H     80.37000000    72.46000000     3.83000000
   H     83.78000000    71.03000000     1.64000000
   H     83.87000000    71.40000000     3.38000000
   H     82.89000000    70.04000000     2.59000000
   H     82.45000000    72.93000000     5.29000000
   H     81.28000000    71.72000000     6.03000000
   H     82.76000000    71.27000000     5.36000000
   N     82.65000000    72.93000000    -0.22000000
   C     83.49000000    73.07000000    -1.39000000
   C     84.84000000    73.56000000    -0.89000000
   O     84.99000000    74.16000000     0.17000000
   C     82.92000000    74.12000000    -2.34000000
   C     82.43000000    75.41000000    -1.69000000
   O     81.79000000    73.50000000    -2.92000000
   H     82.55000000    73.73000000     0.40000000
   H     83.70000000    72.09000000    -1.83000000
   H     83.67000000    74.33000000    -3.10000000
   H     81.39000000    74.14000000    -3.51000000
   H     83.16000000    75.88000000    -1.04000000
   H     82.16000000    76.08000000    -2.51000000
   H     81.59000000    75.24000000    -1.02000000
   N     85.89000000    73.33000000    -1.69000000
   C     87.25000000    73.80000000    -1.49000000
   C     87.29000000    75.30000000    -1.76000000
   O     86.54000000    75.74000000    -2.64000000
   C     88.28000000    73.09000000    -2.36000000
   C     89.72000000    73.41000000    -1.97000000
   O     88.19000000    71.69000000    -2.32000000
   H     85.59000000    72.85000000    -2.52000000
   H     87.49000000    73.73000000    -0.43000000
   H     88.09000000    73.52000000    -3.34000000
   H     88.41000000    71.40000000    -1.43000000
   H     89.84000000    74.47000000    -2.18000000
   H     89.97000000    73.17000000    -0.93000000
   H     90.38000000    73.02000000    -2.75000000
   N     87.95000000    76.03000000    -0.86000000
   C     88.04000000    77.47000000    -0.79000000
   C     86.69000000    78.15000000    -0.69000000
   O     86.31000000    79.01000000    -1.48000000
   C     88.84000000    78.01000000    -1.97000000
   C     89.78000000    79.19000000    -1.73000000
   C     89.12000000    80.54000000    -1.46000000
   C     90.10000000    81.67000000    -1.73000000
   N     89.46000000    82.98000000    -1.51000000
   H     88.46000000    75.62000000    -0.09000000
   H     88.59000000    77.70000000     0.13000000
   H     88.22000000    78.13000000    -2.86000000
   H     89.47000000    77.20000000    -2.32000000
   H     90.32000000    79.29000000    -2.68000000
   H     90.51000000    78.96000000    -0.96000000
   H     88.70000000    80.53000000    -0.45000000
   H     88.31000000    80.69000000    -2.17000000
   H     90.46000000    81.67000000    -2.76000000
   H     91.00000000    81.44000000    -1.16000000
   H     88.95000000    83.06000000    -0.64000000
   H     90.21000000    83.63000000    -1.35000000
   H     88.89000000    83.31000000    -2.27000000
   N     85.97000000    77.74000000     0.36000000
   C     84.65000000    78.28000000     0.65000000
   C     83.68000000    77.24000000     1.18000000
   O     82.47000000    77.38000000     1.02000000
   C     84.73000000    79.53000000     1.52000000
   C     85.33000000    80.71000000     0.76000000
   C     85.05000000    81.94000000     1.60000000
   O     85.97000000    82.40000000     2.31000000
   O     83.91000000    82.46000000     1.62000000
   H     86.39000000    76.99000000     0.89000000
   H     84.29000000    78.60000000    -0.33000000
   H     85.33000000    79.41000000     2.41000000
   H     83.75000000    79.92000000     1.79000000
   H     84.80000000    80.88000000    -0.18000000
   H     86.42000000    80.67000000     0.67000000
   N     83.98000000    76.14000000     1.88000000
   C     85.07000000    75.81000000     2.78000000
   H     85.89700000    76.50100000     2.61700000
   H     84.72700000    75.89100000     3.81200000
   H     85.40600000    74.79100000     2.58700000
   H     83.23000000    75.47000000     1.88000000
  Ca     72.47000000    78.84000000     6.16000000
   O     74.10000000    80.04000000     7.83000000
   H     74.86000000    79.50000000     8.06000000
   H     74.10000000    80.73000000     8.49000000
   O     71.34000000    80.29000000     4.33000000
   H     70.61000000    79.95000000     3.81000000
   H     71.77000000    80.92000000     3.76000000
   O     71.41000000    81.07000000     7.18000000
   H     71.32000000    81.21000000     8.12000000
   H     71.30000000    81.94000000     6.80000000
   O     74.08000000    80.36000000     4.68000000
   H     74.55000000    81.13000000     5.00000000
   H     74.17000000    80.41000000     3.73000000

Ca 1.00



