%chk=loop2.apoCaM-CA-Ng.Init31.run26.water4.chk
%nprocshared=20
%mem=10GB
%nosave
#b3lyp/svp scf=(tight,noincore,xqc) Test 
#IOP(5/87=12) Density=Current Pop=(MK,readradii) iop(6/33=2) iop(6/42=6)

loop2.apoCaM-CA-Ng.Init31.run26.water4 

   -2  1 
   C     93.83000000    55.16000000    63.86000000
   C     92.34000000    55.39000000    64.07000000
   O     91.72000000    54.55000000    64.72000000
   H     94.38000000    55.53700000    64.72200000
   H     94.02100000    54.09300000    63.74600000
   H     94.15700000    55.68600000    62.96300000
   N     91.70000000    56.45000000    63.58000000
   C     92.08000000    57.62000000    62.81000000
   C     91.58000000    57.54000000    61.37000000
   O     90.47000000    57.12000000    61.06000000
   C     91.64000000    58.86000000    63.58000000
   C     90.18000000    58.89000000    64.01000000
   O     89.90000000    59.69000000    64.93000000
   O     89.31000000    58.15000000    63.51000000
   H     90.71000000    56.36000000    63.73000000
   H     93.17000000    57.60000000    62.85000000
   H     91.93000000    59.73000000    62.99000000
   H     92.30000000    58.86000000    64.45000000
   N     92.48000000    57.90000000    60.44000000
   C     92.17000000    58.38000000    59.11000000
   C     91.33000000    59.64000000    59.17000000
   O     91.85000000    60.71000000    59.48000000
   C     91.62000000    57.39000000    58.09000000
   H     93.38000000    58.22000000    60.77000000
   H     93.12000000    58.73000000    58.72000000
   H     92.44000000    56.70000000    57.91000000
   H     90.73000000    56.86000000    58.45000000
   H     91.29000000    57.94000000    57.21000000
   N     90.05000000    59.62000000    58.77000000
   C     89.08000000    60.69000000    58.90000000
   C     88.73000000    60.78000000    60.38000000
   O     88.74000000    59.78000000    61.10000000
   C     87.91000000    60.26000000    58.02000000
   C     87.44000000    58.82000000    58.05000000
   O     87.46000000    58.20000000    59.14000000
   O     86.91000000    58.30000000    57.05000000
   H     89.73000000    58.79000000    58.29000000
   H     89.45000000    61.64000000    58.52000000
   H     88.12000000    60.43000000    56.96000000
   H     87.02000000    60.88000000    58.14000000
   N     88.57000000    61.99000000    60.91000000
   C     88.31000000    62.14000000    62.32000000
   C     86.96000000    62.78000000    62.61000000
   O     86.63000000    63.85000000    62.12000000
   H     88.86000000    62.80000000    60.37000000
   H     89.03000000    62.89000000    62.66000000
   H     88.51000000    61.20000000    62.85000000
   N     86.23000000    62.13000000    63.52000000
   C     84.78000000    62.07000000    63.54000000
   C     84.20000000    62.49000000    64.89000000
   O     83.14000000    63.10000000    65.01000000
   C     84.44000000    60.61000000    63.24000000
   C     84.86000000    60.13000000    61.86000000
   N     84.25000000    60.65000000    60.79000000
   O     85.86000000    59.47000000    61.61000000
   H     86.56000000    61.40000000    64.13000000
   H     84.22000000    62.69000000    62.84000000
   H     83.37000000    60.42000000    63.20000000
   H     84.83000000    59.93000000    63.99000000
   H     83.46000000    61.27000000    60.92000000
   H     84.66000000    60.56000000    59.88000000
   N     84.92000000    62.16000000    65.96000000
   C     84.61000000    62.43000000    67.35000000
   C     83.77000000    61.29000000    67.91000000
   O     83.34000000    60.50000000    67.08000000
   H     85.73000000    61.58000000    65.78000000
   H     84.04000000    63.36000000    67.44000000
   H     85.53000000    62.53000000    67.92000000
   N     83.54000000    61.14000000    69.22000000
   C     83.99000000    62.00000000    70.29000000
   C     84.66000000    61.30000000    71.46000000
   O     84.88000000    61.97000000    72.47000000
   C     82.78000000    62.74000000    70.87000000
   C     82.09000000    63.69000000    69.90000000
   O     81.81000000    61.88000000    71.42000000
   H     82.98000000    60.35000000    69.51000000
   H     84.70000000    62.71000000    69.88000000
   H     83.09000000    63.40000000    71.68000000
   H     81.47000000    62.28000000    72.23000000
   H     81.62000000    63.11000000    69.10000000
   H     81.27000000    64.22000000    70.39000000
   H     82.75000000    64.45000000    69.48000000
   N     84.90000000    59.99000000    71.41000000
   C     85.50000000    59.04000000    72.33000000
   C     84.79000000    59.07000000    73.68000000
   O     85.17000000    59.87000000    74.53000000
   C     87.02000000    59.20000000    72.40000000
   C     87.81000000    59.11000000    71.10000000
   C     87.53000000    58.09000000    73.31000000
   C     89.32000000    59.35000000    71.05000000
   H     84.65000000    59.61000000    70.51000000
   H     85.33000000    58.04000000    71.95000000
   H     87.18000000    60.16000000    72.89000000
   H     87.42000000    59.79000000    70.34000000
   H     87.57000000    58.12000000    70.72000000
   H     88.56000000    58.24000000    73.63000000
   H     86.94000000    58.14000000    74.23000000
   H     87.36000000    57.10000000    72.89000000
   H     89.84000000    58.72000000    71.78000000
   H     89.66000000    59.15000000    70.04000000
   H     89.65000000    60.35000000    71.34000000
   N     83.87000000    58.14000000    73.94000000
   C     83.15000000    57.16000000    73.15000000
   C     83.67000000    55.78000000    73.54000000
   O     84.03000000    54.92000000    72.74000000
   C     81.65000000    57.24000000    73.39000000
   C     81.15000000    57.30000000    74.83000000
   O     79.97000000    56.91000000    74.98000000
   O     81.78000000    57.68000000    75.83000000
   H     83.64000000    58.14000000    74.93000000
   H     83.29000000    57.34000000    72.09000000
   H     81.21000000    56.39000000    72.88000000
   H     81.25000000    58.08000000    72.81000000
   N     83.72000000    55.55000000    74.85000000
   C     84.19000000    54.39000000    75.58000000
   C     83.13000000    53.67000000    76.40000000
   O     82.20000000    54.32000000    76.87000000
   C     85.44000000    54.80000000    76.34000000
   C     85.20000000    55.66000000    77.56000000
   C     85.06000000    57.05000000    77.42000000
   C     84.94000000    54.98000000    78.76000000
   C     84.88000000    57.78000000    78.60000000
   C     84.69000000    55.75000000    79.90000000
   C     84.71000000    57.14000000    79.84000000
   H     83.40000000    56.35000000    75.39000000
   H     84.46000000    53.66000000    74.82000000
   H     86.10000000    55.28000000    75.62000000
   H     86.02000000    53.92000000    76.64000000
   H     85.28000000    57.56000000    76.50000000
   H     85.04000000    53.91000000    78.84000000
   H     85.03000000    58.85000000    78.54000000
   H     84.61000000    55.12000000    80.78000000
   H     84.66000000    57.68000000    80.78000000
   N     83.29000000    52.39000000    76.76000000
   C     84.40000000    51.53000000    76.44000000
   C     84.31000000    50.85000000    75.08000000
   O     83.35000000    51.06000000    74.34000000
   C     84.35000000    50.44000000    77.51000000
   C     82.88000000    50.29000000    77.89000000
   C     82.41000000    51.73000000    77.70000000
   H     85.38000000    52.00000000    76.54000000
   H     84.72000000    49.49000000    77.12000000
   H     84.92000000    50.65000000    78.41000000
   H     82.36000000    49.57000000    77.26000000
   H     82.78000000    49.94000000    78.92000000
   H     81.37000000    51.63000000    77.40000000
   H     82.57000000    52.16000000    78.69000000
   N     85.40000000    50.20000000    74.67000000
   C     85.74000000    49.68000000    73.36000000
   C     87.12000000    49.93000000    72.76000000
   O     87.50000000    49.25000000    71.81000000
   C     85.39000000    48.20000000    73.29000000
   C     85.77000000    47.35000000    74.50000000
   C     87.26000000    47.11000000    74.72000000
   O     87.88000000    46.22000000    74.10000000
   O     87.86000000    47.84000000    75.53000000
   H     86.14000000    50.10000000    75.35000000
   H     85.04000000    50.09000000    72.64000000
   H     85.67000000    47.81000000    72.31000000
   H     84.30000000    48.17000000    73.23000000
   H     85.25000000    46.43000000    74.26000000
   H     85.28000000    47.81000000    75.36000000
   N     87.99000000    50.85000000    73.18000000
   C     87.85000000    52.00000000    74.05000000
   H     86.81400000    52.08300000    74.37800000
   H     88.49700000    51.88000000    74.91900000
   H     88.13200000    52.90300000    73.50800000
   H     88.89000000    50.83000000    72.73000000
  Ca     87.83000000    57.40000000    61.64000000
   O     88.36000000    55.08000000    62.84000000
   H     88.65000000    54.29000000    62.37000000
   H     88.21000000    54.78000000    63.74000000
   O     86.44000000    57.46000000    64.02000000
   H     87.22000000    57.67000000    64.53000000
   H     85.73000000    57.46000000    64.66000000
   O     85.45000000    56.20000000    61.43000000
   H     84.59000000    56.50000000    61.73000000
   H     85.33000000    55.27000000    61.25000000
   O     87.96000000    55.35000000    59.80000000
   H     87.96000000    55.56000000    58.86000000
   H     87.23000000    54.75000000    59.91000000

Ca 1.00



