%chk=loop4.holoCaM-CaMKII.run48.water2.chk
%nprocshared=20
%mem=10GB
%nosave
#b3lyp/svp scf=(tight,noincore,xqc) Test 
#IOP(5/87=12) Density=Current Pop=(MK,readradii) iop(6/33=2) iop(6/42=6)

loop4.holoCaM-CaMKII.run48.water2 

   -3  1 
   C     41.39000000    52.64000000    19.92000000
   C     42.52000000    53.52000000    20.46000000
   O     42.24000000    54.66000000    20.82000000
   H     40.53900000    53.26600000    19.65100000
   H     41.73700000    52.10200000    19.03800000
   H     41.08700000    51.92600000    20.68600000
   N     43.78000000    53.08000000    20.47000000
   C     44.95000000    53.77000000    20.97000000
   C     45.56000000    54.67000000    19.91000000
   O     45.62000000    54.33000000    18.73000000
   C     45.87000000    52.66000000    21.49000000
   C     47.22000000    53.17000000    21.96000000
   O     48.24000000    52.45000000    21.92000000
   O     47.30000000    54.32000000    22.43000000
   H     43.94000000    52.13000000    20.15000000
   H     44.61000000    54.49000000    21.71000000
   H     46.00000000    51.93000000    20.69000000
   H     45.34000000    52.15000000    22.29000000
   N     45.89000000    55.89000000    20.35000000
   C     46.36000000    56.98000000    19.51000000
   C     47.84000000    57.26000000    19.69000000
   O     48.52000000    57.42000000    18.68000000
   C     45.55000000    58.23000000    19.81000000
   C     44.08000000    58.01000000    19.48000000
   C     46.11000000    59.43000000    19.04000000
   C     43.26000000    59.29000000    19.39000000
   H     45.71000000    56.06000000    21.33000000
   H     46.25000000    56.73000000    18.46000000
   H     45.58000000    58.44000000    20.88000000
   H     43.56000000    57.33000000    20.16000000
   H     44.06000000    57.74000000    18.42000000
   H     45.56000000    60.34000000    19.26000000
   H     47.14000000    59.64000000    19.33000000
   H     45.93000000    59.20000000    17.99000000
   H     42.20000000    59.06000000    19.35000000
   H     43.53000000    59.99000000    20.18000000
   H     43.46000000    59.76000000    18.42000000
   N     48.33000000    57.25000000    20.93000000
   C     49.73000000    57.48000000    21.25000000
   C     50.58000000    56.26000000    20.95000000
   O     51.75000000    56.43000000    20.59000000
   C     49.92000000    57.95000000    22.69000000
   C     49.07000000    57.14000000    23.66000000
   O     47.91000000    57.52000000    23.93000000
   O     49.48000000    56.01000000    24.01000000
   H     47.68000000    57.12000000    21.69000000
   H     50.18000000    58.25000000    20.62000000
   H     49.82000000    59.03000000    22.83000000
   H     50.96000000    57.69000000    22.88000000
   N     50.02000000    55.06000000    21.09000000
   C     50.69000000    53.83000000    20.72000000
   C     51.25000000    53.09000000    21.93000000
   O     51.98000000    52.13000000    21.70000000
   H     49.08000000    54.97000000    21.46000000
   H     51.50000000    54.10000000    20.05000000
   H     50.03000000    53.12000000    20.23000000
   N     50.98000000    53.39000000    23.20000000
   C     51.41000000    52.62000000    24.35000000
   C     50.89000000    51.19000000    24.48000000
   O     51.28000000    50.42000000    25.35000000
   C     51.14000000    53.35000000    25.66000000
   C     49.69000000    53.53000000    26.07000000
   O     49.35000000    53.97000000    27.19000000
   O     48.74000000    53.43000000    25.26000000
   H     50.42000000    54.21000000    23.38000000
   H     52.50000000    52.57000000    24.31000000
   H     51.62000000    54.32000000    25.66000000
   H     51.65000000    52.86000000    26.50000000
   N     49.99000000    50.82000000    23.58000000
   C     49.26000000    49.57000000    23.60000000
   C     48.14000000    49.47000000    24.63000000
   O     47.80000000    48.32000000    24.92000000
   H     49.59000000    51.55000000    22.99000000
   H     50.00000000    48.80000000    23.80000000
   H     48.96000000    49.45000000    22.55000000
   N     47.58000000    50.58000000    25.11000000
   C     46.47000000    50.64000000    26.02000000
   C     45.50000000    51.78000000    25.72000000
   O     45.89000000    52.72000000    25.04000000
   C     46.93000000    50.72000000    27.48000000
   C     47.29000000    49.31000000    27.94000000
   C     47.54000000    49.13000000    29.43000000
   N     48.79000000    49.06000000    29.89000000
   O     46.62000000    49.19000000    30.24000000
   H     48.07000000    51.44000000    24.92000000
   H     45.90000000    49.73000000    25.84000000
   H     46.14000000    51.11000000    28.12000000
   H     47.89000000    51.23000000    27.55000000
   H     48.11000000    48.89000000    27.35000000
   H     46.43000000    48.68000000    27.74000000
   H     49.55000000    49.09000000    29.23000000
   H     48.89000000    48.94000000    30.89000000
   N     44.27000000    51.59000000    26.20000000
   C     43.17000000    52.51000000    25.99000000
   C     42.75000000    53.26000000    27.25000000
   O     42.29000000    52.63000000    28.20000000
   C     41.99000000    51.88000000    25.26000000
   C     41.28000000    52.97000000    24.46000000
   C     42.27000000    50.72000000    24.31000000
   H     44.03000000    50.82000000    26.82000000
   H     43.55000000    53.26000000    25.30000000
   H     41.28000000    51.40000000    25.94000000
   H     40.38000000    52.44000000    24.16000000
   H     41.00000000    53.87000000    25.01000000
   H     41.90000000    53.28000000    23.61000000
   H     41.40000000    50.22000000    23.88000000
   H     42.95000000    51.02000000    23.52000000
   H     42.80000000    49.93000000    24.85000000
   N     42.95000000    54.57000000    27.34000000
   C     42.36000000    55.36000000    28.40000000
   C     40.96000000    55.87000000    28.07000000
   O     40.49000000    55.72000000    26.95000000
   C     43.34000000    56.50000000    28.69000000
   C     43.12000000    57.44000000    29.87000000
   N     43.61000000    58.68000000    29.84000000
   O     42.39000000    57.16000000    30.81000000
   H     43.37000000    55.04000000    26.55000000
   H     42.29000000    54.82000000    29.34000000
   H     43.35000000    57.13000000    27.81000000
   H     44.33000000    56.05000000    28.77000000
   H     44.14000000    59.09000000    29.08000000
   H     43.38000000    59.29000000    30.61000000
   N     40.25000000    56.42000000    29.06000000
   C     38.82000000    56.59000000    28.91000000
   C     38.47000000    57.69000000    27.91000000
   O     37.60000000    57.51000000    27.06000000
   C     38.24000000    56.96000000    30.27000000
   C     36.79000000    57.40000000    30.30000000
   C     35.76000000    56.66000000    29.70000000
   C     36.46000000    58.66000000    30.79000000
   C     34.43000000    57.09000000    29.77000000
   C     35.14000000    59.04000000    31.07000000
   C     34.12000000    58.21000000    30.57000000
   O     32.80000000    58.49000000    30.75000000
   H     40.77000000    56.63000000    29.90000000
   H     38.48000000    55.59000000    28.65000000
   H     38.88000000    57.60000000    30.88000000
   H     38.27000000    56.07000000    30.89000000
   H     36.05000000    55.75000000    29.20000000
   H     37.25000000    59.35000000    31.07000000
   H     33.61000000    56.50000000    29.39000000
   H     34.86000000    59.91000000    31.65000000
   H     32.66000000    59.34000000    31.18000000
   N     39.30000000    58.73000000    27.80000000
   C     39.25000000    59.70000000    26.73000000
   C     39.52000000    59.20000000    25.31000000
   O     39.13000000    59.78000000    24.30000000
   C     40.15000000    60.87000000    27.12000000
   C     41.66000000    60.69000000    27.11000000
   C     42.44000000    62.00000000    27.11000000
   O     41.88000000    63.05000000    27.47000000
   O     43.66000000    62.00000000    26.82000000
   H     40.04000000    58.80000000    28.48000000
   H     38.23000000    60.09000000    26.74000000
   H     39.95000000    61.36000000    28.07000000
   H     40.01000000    61.55000000    26.28000000
   H     41.92000000    60.26000000    26.13000000
   H     41.96000000    60.05000000    27.94000000
   N     40.33000000    58.14000000    25.21000000
   C     40.49000000    57.39000000    23.99000000
   C     39.27000000    56.55000000    23.64000000
   O     38.76000000    56.66000000    22.52000000
   C     41.77000000    56.56000000    24.02000000
   C     43.01000000    57.45000000    24.04000000
   C     44.27000000    56.59000000    24.07000000
   O     45.18000000    56.59000000    23.21000000
   O     44.42000000    55.86000000    25.08000000
   H     40.54000000    57.68000000    26.09000000
   H     40.59000000    58.05000000    23.13000000
   H     41.84000000    56.13000000    23.02000000
   H     41.68000000    55.75000000    24.74000000
   H     43.00000000    58.02000000    24.97000000
   H     43.05000000    58.18000000    23.24000000
   N     38.62000000    55.85000000    24.57000000
   C     37.34000000    55.20000000    24.35000000
   H     36.60800000    55.94000000    24.02600000
   H     37.44800000    54.43500000    23.58100000
   H     37.00200000    54.73800000    25.27800000
   H     39.14000000    55.65000000    25.41000000
  Ca     46.94000000    55.18000000    24.75000000
   O     46.63000000    57.25000000    26.52000000
   H     46.91000000    58.15000000    26.39000000
   H     46.74000000    57.10000000    27.46000000
   O     46.81000000    54.48000000    27.36000000
   H     46.81000000    54.94000000    28.20000000
   H     47.68000000    54.08000000    27.30000000

Ca 1.00



