%chk=loop4.holoCaM.run66.water2.chk
%nprocshared=20
%mem=10GB
%nosave
#b3lyp/svp scf=(tight,noincore,xqc) Test 
#IOP(5/87=12) Density=Current Pop=(MK,readradii) iop(6/33=2) iop(6/42=6)

loop4.holoCaM.run66.water2 

   -3  1 
   C     72.31000000    73.71000000    19.91000000
   C     72.04000000    74.34000000    21.26000000
   O     71.18000000    75.21000000    21.40000000
   H     73.34800000    73.38000000    19.86500000
   H     71.65100000    72.85300000    19.77000000
   H     72.12700000    74.44200000    19.12400000
   N     72.91000000    74.06000000    22.24000000
   C     72.75000000    74.47000000    23.63000000
   C     73.11000000    75.95000000    23.68000000
   O     74.28000000    76.30000000    23.82000000
   C     73.61000000    73.58000000    24.53000000
   C     73.56000000    74.00000000    25.99000000
   O     74.50000000    73.73000000    26.78000000
   O     72.59000000    74.69000000    26.36000000
   H     73.72000000    73.50000000    22.04000000
   H     71.70000000    74.36000000    23.87000000
   H     74.63000000    73.59000000    24.16000000
   H     73.21000000    72.57000000    24.53000000
   N     72.13000000    76.86000000    23.59000000
   C     72.37000000    78.28000000    23.52000000
   C     73.05000000    78.90000000    24.74000000
   O     73.62000000    79.99000000    24.68000000
   C     71.10000000    79.06000000    23.22000000
   C     70.15000000    79.11000000    24.41000000
   C     70.42000000    78.46000000    21.99000000
   C     68.90000000    79.94000000    24.14000000
   H     71.20000000    76.63000000    23.28000000
   H     73.16000000    78.37000000    22.78000000
   H     71.44000000    80.08000000    23.02000000
   H     70.79000000    79.65000000    25.11000000
   H     69.95000000    78.09000000    24.74000000
   H     69.47000000    78.96000000    21.77000000
   H     71.07000000    78.60000000    21.13000000
   H     70.19000000    77.41000000    22.14000000
   H     68.28000000    79.60000000    23.31000000
   H     68.33000000    79.97000000    25.07000000
   H     69.17000000    80.99000000    24.01000000
   N     72.86000000    78.26000000    25.89000000
   C     73.14000000    78.80000000    27.20000000
   C     74.01000000    78.01000000    28.17000000
   O     74.38000000    78.49000000    29.24000000
   C     71.85000000    79.21000000    27.90000000
   C     70.71000000    78.20000000    27.96000000
   O     70.73000000    77.13000000    27.32000000
   O     69.67000000    78.44000000    28.61000000
   H     72.12000000    77.58000000    25.86000000
   H     73.65000000    79.75000000    27.03000000
   H     71.48000000    80.17000000    27.53000000
   H     72.13000000    79.50000000    28.91000000
   N     74.58000000    76.87000000    27.78000000
   C     75.63000000    76.24000000    28.55000000
   C     75.35000000    75.46000000    29.82000000
   O     76.05000000    75.57000000    30.83000000
   H     74.21000000    76.43000000    26.95000000
   H     76.37000000    76.99000000    28.84000000
   H     76.24000000    75.63000000    27.88000000
   N     74.23000000    74.74000000    29.77000000
   C     73.83000000    73.74000000    30.74000000
   C     73.95000000    72.28000000    30.31000000
   O     73.59000000    71.36000000    31.04000000
   C     72.37000000    73.91000000    31.17000000
   C     71.48000000    74.08000000    29.95000000
   O     70.77000000    75.09000000    29.76000000
   O     71.30000000    73.18000000    29.10000000
   H     73.86000000    74.65000000    28.84000000
   H     74.49000000    73.95000000    31.58000000
   H     72.30000000    74.77000000    31.83000000
   H     72.07000000    73.03000000    31.74000000
   N     74.47000000    72.07000000    29.10000000
   C     74.65000000    70.79000000    28.44000000
   C     73.40000000    70.05000000    27.99000000
   O     73.55000000    68.85000000    27.76000000
   H     74.48000000    72.85000000    28.46000000
   H     75.10000000    70.04000000    29.10000000
   H     75.21000000    70.95000000    27.52000000
   N     72.25000000    70.69000000    27.81000000
   C     70.97000000    70.08000000    27.48000000
   C     70.17000000    70.95000000    26.52000000
   O     70.51000000    72.09000000    26.22000000
   C     70.16000000    69.86000000    28.75000000
   C     70.79000000    68.91000000    29.77000000
   C     69.97000000    68.78000000    31.05000000
   N     69.86000000    69.70000000    32.01000000
   O     69.25000000    67.79000000    31.15000000
   H     72.29000000    71.65000000    28.11000000
   H     71.14000000    69.16000000    26.92000000
   H     69.19000000    69.43000000    28.52000000
   H     70.04000000    70.75000000    29.37000000
   H     71.74000000    69.29000000    30.15000000
   H     70.94000000    67.94000000    29.29000000
   H     70.41000000    70.54000000    31.98000000
   H     69.39000000    69.57000000    32.89000000
   N     69.05000000    70.38000000    26.06000000
   C     68.06000000    71.03000000    25.22000000
   C     66.65000000    70.87000000    25.78000000
   O     66.31000000    69.78000000    26.23000000
   C     68.15000000    70.62000000    23.75000000
   C     69.47000000    71.08000000    23.14000000
   C     68.04000000    69.11000000    23.53000000
   H     68.81000000    69.46000000    26.39000000
   H     68.32000000    72.09000000    25.18000000
   H     67.37000000    71.14000000    23.20000000
   H     69.68000000    72.08000000    23.51000000
   H     70.26000000    70.40000000    23.45000000
   H     69.37000000    71.10000000    22.06000000
   H     67.02000000    68.76000000    23.72000000
   H     68.35000000    68.89000000    22.51000000
   H     68.76000000    68.55000000    24.12000000
   N     65.91000000    71.97000000    25.63000000
   C     64.46000000    72.01000000    25.69000000
   C     63.86000000    72.07000000    24.29000000
   O     64.61000000    72.16000000    23.32000000
   C     63.95000000    73.16000000    26.55000000
   C     63.90000000    74.52000000    25.87000000
   N     65.06000000    75.14000000    25.63000000
   O     62.84000000    74.99000000    25.45000000
   H     66.36000000    72.77000000    25.19000000
   H     64.14000000    71.09000000    26.18000000
   H     64.58000000    73.31000000    27.42000000
   H     62.91000000    73.03000000    26.85000000
   H     65.95000000    74.69000000    25.80000000
   H     65.07000000    76.10000000    25.34000000
   N     62.53000000    72.03000000    24.21000000
   C     61.90000000    71.96000000    22.90000000
   C     62.28000000    72.95000000    21.82000000
   O     62.50000000    72.59000000    20.67000000
   C     60.39000000    71.83000000    23.07000000
   C     59.55000000    71.57000000    21.84000000
   C     59.55000000    70.29000000    21.28000000
   C     58.88000000    72.62000000    21.21000000
   C     58.96000000    70.12000000    20.02000000
   C     58.31000000    72.50000000    19.94000000
   C     58.30000000    71.20000000    19.40000000
   O     57.61000000    70.99000000    18.25000000
   H     61.88000000    72.10000000    24.98000000
   H     62.29000000    70.99000000    22.58000000
   H     60.02000000    72.75000000    23.54000000
   H     60.16000000    71.06000000    23.80000000
   H     60.04000000    69.47000000    21.79000000
   H     58.91000000    73.63000000    21.60000000
   H     58.84000000    69.13000000    19.60000000
   H     57.76000000    73.30000000    19.46000000
   H     57.23000000    71.80000000    17.90000000
   N     62.60000000    74.19000000    22.21000000
   C     63.07000000    75.28000000    21.38000000
   C     64.53000000    75.27000000    20.95000000
   O     64.94000000    76.08000000    20.12000000
   C     62.49000000    76.55000000    22.00000000
   C     61.00000000    76.57000000    22.34000000
   C     60.58000000    77.83000000    23.09000000
   O     61.31000000    78.34000000    23.97000000
   O     59.44000000    78.26000000    22.82000000
   H     62.60000000    74.42000000    23.19000000
   H     62.53000000    75.26000000    20.43000000
   H     62.71000000    77.39000000    21.34000000
   H     63.03000000    76.72000000    22.94000000
   H     60.68000000    75.66000000    22.83000000
   H     60.44000000    76.48000000    21.41000000
   N     65.35000000    74.38000000    21.50000000
   C     66.72000000    74.08000000    21.12000000
   C     66.86000000    72.77000000    20.36000000
   O     67.61000000    72.68000000    19.39000000
   C     67.62000000    74.03000000    22.35000000
   C     67.78000000    75.30000000    23.19000000
   C     68.36000000    75.02000000    24.57000000
   O     67.72000000    74.39000000    25.44000000
   O     69.52000000    75.41000000    24.83000000
   H     64.87000000    73.72000000    22.10000000
   H     67.05000000    74.84000000    20.41000000
   H     68.63000000    73.79000000    22.03000000
   H     67.21000000    73.20000000    22.92000000
   H     66.82000000    75.74000000    23.45000000
   H     68.40000000    75.92000000    22.55000000
   N     66.00000000    71.80000000    20.64000000
   C     65.97000000    70.50000000    19.99000000
   H     65.71400000    70.62600000    18.93800000
   H     66.95000000    70.03000000    20.07100000
   H     65.22300000    69.86900000    20.47200000
   H     65.47000000    71.88000000    21.50000000
  Ca     70.07000000    74.69000000    27.18000000
   O     68.07000000    73.49000000    28.65000000
   H     67.63000000    74.16000000    29.18000000
   H     67.87000000    72.67000000    29.09000000
   O     67.88000000    76.70000000    27.46000000
   H     67.14000000    77.31000000    27.36000000
   H     68.63000000    77.26000000    27.63000000

Ca 1.00



