%chk=loop2.holoCaM.run52.water1.chk
%nprocshared=20
%mem=10GB
%nosave
#b3lyp/svp scf=(tight,noincore,xqc) Test 
#IOP(5/87=12) Density=Current Pop=(MK,readradii) iop(6/33=2) iop(6/42=6)

loop2.holoCaM.run52.water1 

   -2  1 
   C     56.90000000    68.77000000     1.27200000
   C     55.88000000    69.66000000     1.97200000
   O     56.27000000    70.69000000     2.52200000
   H     57.82600000    68.75700000     1.84700000
   H     56.50700000    67.75600000     1.19500000
   H     57.09900000    69.16000000     0.27400000
   N     54.64000000    69.18000000     2.13200000
   C     53.63000000    70.11000000     2.59200000
   C     53.65000000    70.35000000     4.10200000
   O     53.33000000    69.43000000     4.85200000
   C     52.30000000    69.53000000     2.12200000
   C     51.06000000    70.31000000     2.50200000
   O     49.90000000    69.87000000     2.37200000
   O     51.28000000    71.40000000     3.07200000
   H     54.47000000    68.21000000     1.92200000
   H     53.68000000    71.05000000     2.04200000
   H     52.17000000    68.52000000     2.50200000
   H     52.25000000    69.35000000     1.05200000
   N     54.04000000    71.54000000     4.55200000
   C     54.23000000    71.88000000     5.95200000
   C     52.95000000    72.21000000     6.70200000
   O     53.01000000    72.13000000     7.93200000
   C     55.41000000    72.84000000     6.05200000
   H     54.25000000    72.30000000     3.92200000
   H     54.59000000    70.93000000     6.36200000
   H     55.00000000    73.75000000     5.60200000
   H     55.75000000    73.06000000     7.06200000
   H     56.19000000    72.33000000     5.50200000
   N     51.82000000    72.47000000     6.04200000
   C     50.53000000    72.56000000     6.68200000
   C     49.63000000    71.34000000     6.52200000
   O     48.69000000    71.21000000     7.31200000
   C     49.83000000    73.81000000     6.14200000
   C     49.90000000    74.00000000     4.63200000
   O     49.04000000    73.47000000     3.89200000
   O     50.88000000    74.62000000     4.17200000
   H     51.83000000    72.54000000     5.03200000
   H     50.61000000    72.74000000     7.75200000
   H     50.19000000    74.75000000     6.57200000
   H     48.86000000    73.86000000     6.63200000
   N     49.95000000    70.42000000     5.61200000
   C     49.12000000    69.25000000     5.37200000
   C     47.69000000    69.54000000     4.93200000
   O     46.82000000    69.15000000     5.70200000
   H     50.61000000    70.72000000     4.91200000
   H     49.12000000    68.73000000     6.33200000
   H     49.64000000    68.56000000     4.71200000
   N     47.41000000    70.03000000     3.72200000
   C     46.14000000    70.36000000     3.10200000
   C     46.12000000    70.00000000     1.62200000
   O     45.34000000    70.52000000     0.82200000
   C     45.80000000    71.82000000     3.40200000
   C     45.66000000    72.13000000     4.88200000
   N     46.67000000    72.73000000     5.51200000
   O     44.64000000    71.88000000     5.52200000
   H     48.22000000    70.34000000     3.22200000
   H     45.37000000    69.81000000     3.63200000
   H     44.88000000    72.11000000     2.90200000
   H     46.53000000    72.53000000     3.03200000
   H     47.50000000    72.89000000     4.96200000
   H     46.70000000    73.01000000     6.48200000
   N     46.94000000    69.08000000     1.11200000
   C     47.01000000    68.52000000    -0.22800000
   C     47.48000000    69.48000000    -1.30800000
   O     47.09000000    69.33000000    -2.45800000
   H     47.57000000    68.64000000     1.76200000
   H     46.01000000    68.20000000    -0.51800000
   H     47.72000000    67.69000000    -0.18800000
   N     48.08000000    70.57000000    -0.81800000
   C     48.32000000    71.75000000    -1.63800000
   C     49.69000000    72.36000000    -1.39800000
   O     50.21000000    72.43000000    -0.28800000
   C     47.23000000    72.81000000    -1.50800000
   C     45.97000000    72.41000000    -2.26800000
   O     46.95000000    72.89000000    -0.12800000
   H     48.45000000    70.51000000     0.11200000
   H     48.30000000    71.54000000    -2.70800000
   H     47.63000000    73.74000000    -1.90800000
   H     46.19000000    72.34000000     0.06200000
   H     45.34000000    73.26000000    -2.52800000
   H     46.23000000    72.07000000    -3.27800000
   H     45.52000000    71.58000000    -1.72800000
   N     50.21000000    73.00000000    -2.44800000
   C     51.61000000    73.36000000    -2.52800000
   C     51.77000000    74.87000000    -2.62800000
   O     51.20000000    75.53000000    -3.49800000
   C     52.18000000    72.64000000    -3.74800000
   C     52.22000000    71.12000000    -3.64800000
   C     53.60000000    73.14000000    -4.01800000
   C     52.98000000    70.57000000    -2.44800000
   H     49.67000000    73.04000000    -3.29800000
   H     52.29000000    73.04000000    -1.72800000
   H     51.59000000    72.80000000    -4.64800000
   H     52.62000000    70.71000000    -4.57800000
   H     51.22000000    70.69000000    -3.51800000
   H     54.27000000    72.31000000    -4.21800000
   H     53.54000000    73.77000000    -4.90800000
   H     54.02000000    73.61000000    -3.13800000
   H     54.02000000    70.91000000    -2.48800000
   H     52.52000000    70.84000000    -1.49800000
   H     52.94000000    69.49000000    -2.38800000
   N     52.54000000    75.47000000    -1.71800000
   C     52.91000000    76.87000000    -1.68800000
   C     54.22000000    77.18000000    -2.39800000
   O     54.94000000    76.22000000    -2.66800000
   C     52.98000000    77.49000000    -0.29800000
   C     51.82000000    77.26000000     0.66200000
   O     51.73000000    76.17000000     1.27200000
   O     50.99000000    78.15000000     0.94200000
   H     53.11000000    74.92000000    -1.08800000
   H     52.19000000    77.53000000    -2.16800000
   H     52.96000000    78.55000000    -0.54800000
   H     53.91000000    77.18000000     0.18200000
   N     54.58000000    78.43000000    -2.68800000
   C     55.82000000    78.73000000    -3.36800000
   C     57.04000000    78.30000000    -2.56800000
   O     57.90000000    77.62000000    -3.10800000
   C     55.81000000    80.14000000    -3.95800000
   C     57.07000000    80.50000000    -4.68800000
   C     57.48000000    79.86000000    -5.86800000
   C     57.81000000    81.59000000    -4.20800000
   C     58.67000000    80.20000000    -6.52800000
   C     59.02000000    81.93000000    -4.82800000
   C     59.44000000    81.24000000    -5.96800000
   H     54.08000000    79.21000000    -2.27800000
   H     55.76000000    78.09000000    -4.24800000
   H     55.67000000    80.78000000    -3.07800000
   H     54.86000000    80.29000000    -4.47800000
   H     56.87000000    79.04000000    -6.21800000
   H     57.45000000    82.11000000    -3.33800000
   H     59.02000000    79.70000000    -7.40800000
   H     59.69000000    82.66000000    -4.39800000
   H     60.41000000    81.57000000    -6.30800000
   N     57.14000000    78.49000000    -1.24800000
   C     58.23000000    77.87000000    -0.50800000
   C     58.42000000    76.36000000    -0.47800000
   O     59.50000000    75.85000000    -0.20800000
   C     58.06000000    78.38000000     0.92200000
   C     56.59000000    78.80000000     1.01200000
   C     56.49000000    79.44000000    -0.36800000
   H     59.15000000    78.28000000    -0.90800000
   H     58.33000000    77.58000000     1.60200000
   H     58.71000000    79.23000000     1.13200000
   H     55.93000000    77.94000000     1.07200000
   H     56.38000000    79.41000000     1.88200000
   H     55.44000000    79.67000000    -0.55800000
   H     56.96000000    80.43000000    -0.37800000
   N     57.37000000    75.59000000    -0.77800000
   C     57.35000000    74.15000000    -0.89800000
   C     57.67000000    73.70000000    -2.30800000
   O     58.48000000    72.79000000    -2.49800000
   C     55.94000000    73.74000000    -0.44800000
   C     55.59000000    74.13000000     0.98200000
   C     54.16000000    73.78000000     1.37200000
   O     53.25000000    73.66000000     0.52200000
   O     53.85000000    73.69000000     2.57200000
   H     56.58000000    76.14000000    -1.08800000
   H     58.07000000    73.70000000    -0.21800000
   H     55.98000000    72.65000000    -0.40800000
   H     55.21000000    74.17000000    -1.12800000
   H     55.92000000    75.10000000     1.33200000
   H     56.24000000    73.53000000     1.62200000
   N     57.16000000    74.38000000    -3.33800000
   C     57.65000000    74.14000000    -4.67800000
   H     58.67400000    73.77000000    -4.62900000
   H     57.02000000    73.39800000    -5.16900000
   H     57.62700000    75.07000000    -5.24600000
   H     56.44000000    75.06000000    -3.10800000
  Ca     50.98000000    73.74000000     1.82000000
   O     48.71000000    74.75000000     0.94000000
   H     47.98000000    74.31000000     0.49000000
   H     48.36000000    75.60000000     1.20000000

Ca 1.00



