%chk=loop4.apoCaM-CA-Ng.Init31.run54.water3.chk
%nprocshared=20
%mem=10GB
%nosave
#b3lyp/svp scf=(tight,noincore,xqc) Test 
#IOP(5/87=12) Density=Current Pop=(MK,readradii) iop(6/33=2) iop(6/42=6)

loop4.apoCaM-CA-Ng.Init31.run54.water3 

   -3  1 
   C     91.77000000    46.16000000     8.01000000
   C     92.88000000    46.33000000     9.05000000
   O     93.34000000    47.43000000     9.33000000
   H     90.93100000    46.80700000     8.26600000
   H     92.15000000    46.43100000     7.02500000
   H     91.43700000    45.12200000     7.99900000
   N     93.27000000    45.28000000     9.77000000
   C     92.81000000    43.93000000    10.05000000
   C     92.06000000    43.85000000    11.38000000
   O     91.23000000    42.95000000    11.50000000
   C     93.98000000    42.95000000    10.04000000
   C     94.79000000    42.98000000     8.75000000
   O     94.20000000    43.32000000     7.70000000
   O     95.88000000    42.38000000     8.66000000
   H     94.11000000    45.52000000    10.29000000
   H     92.11000000    43.64000000     9.28000000
   H     93.69000000    41.93000000    10.29000000
   H     94.74000000    43.23000000    10.77000000
   N     92.26000000    44.79000000    12.30000000
   C     91.47000000    44.84000000    13.52000000
   C     91.59000000    43.55000000    14.33000000
   O     90.60000000    43.05000000    14.86000000
   C     91.73000000    46.13000000    14.28000000
   C     91.33000000    47.34000000    13.45000000
   C     91.10000000    46.12000000    15.67000000
   C     89.85000000    47.72000000    13.52000000
   H     92.94000000    45.52000000    12.16000000
   H     90.42000000    44.93000000    13.22000000
   H     92.81000000    46.15000000    14.38000000
   H     91.72000000    47.27000000    12.43000000
   H     91.87000000    48.19000000    13.86000000
   H     91.16000000    47.08000000    16.19000000
   H     90.04000000    45.86000000    15.64000000
   H     91.57000000    45.33000000    16.26000000
   H     89.12000000    46.91000000    13.48000000
   H     89.64000000    48.18000000    14.48000000
   H     89.72000000    48.53000000    12.80000000
   N     92.78000000    42.95000000    14.42000000
   C     93.07000000    41.68000000    15.05000000
   C     94.09000000    40.93000000    14.20000000
   O     94.06000000    39.71000000    14.16000000
   C     93.53000000    41.80000000    16.50000000
   C     93.49000000    40.46000000    17.21000000
   O     94.29000000    40.26000000    18.15000000
   O     92.57000000    39.67000000    16.91000000
   H     93.54000000    43.36000000    13.90000000
   H     92.16000000    41.09000000    14.99000000
   H     92.98000000    42.53000000    17.11000000
   H     94.48000000    42.32000000    16.42000000
   N     94.99000000    41.69000000    13.57000000
   C     96.03000000    41.29000000    12.64000000
   C     97.16000000    40.41000000    13.16000000
   O     97.42000000    40.35000000    14.36000000
   H     94.97000000    42.66000000    13.85000000
   H     96.39000000    42.15000000    12.09000000
   H     95.55000000    40.73000000    11.83000000
   N     97.92000000    39.71000000    12.32000000
   C     99.17000000    39.03000000    12.56000000
   C     99.01000000    37.52000000    12.68000000
   O     98.03000000    36.93000000    12.22000000
   C    100.17000000    39.41000000    11.47000000
   C     99.83000000    39.15000000    10.01000000
   O     99.06000000    39.89000000     9.36000000
   O    100.39000000    38.23000000     9.37000000
   H     97.69000000    39.58000000    11.34000000
   H     99.57000000    39.39000000    13.51000000
   H    101.15000000    39.00000000    11.70000000
   H    100.35000000    40.48000000    11.55000000
   N     99.90000000    36.72000000    13.28000000
   C    101.05000000    37.02000000    14.11000000
   C    100.69000000    37.27000000    15.57000000
   O     99.56000000    36.91000000    15.90000000
   H     99.69000000    35.73000000    13.23000000
   H    101.49000000    37.94000000    13.72000000
   H    101.64000000    36.11000000    14.04000000
   N    101.56000000    37.76000000    16.46000000
   C    102.79000000    38.48000000    16.21000000
   C    102.56000000    39.75000000    15.40000000
   O    101.50000000    40.06000000    14.87000000
   C    103.91000000    37.59000000    15.70000000
   C    104.37000000    36.64000000    16.80000000
   C    105.63000000    35.86000000    16.45000000
   N    105.58000000    34.53000000    16.35000000
   O    106.75000000    36.36000000    16.54000000
   H    101.15000000    37.88000000    17.38000000
   H    103.08000000    38.80000000    17.21000000
   H    104.78000000    38.24000000    15.62000000
   H    103.67000000    37.18000000    14.72000000
   H    103.57000000    35.92000000    16.99000000
   H    104.61000000    37.24000000    17.69000000
   H    104.67000000    34.10000000    16.31000000
   H    106.49000000    34.11000000    16.21000000
   N    103.61000000    40.57000000    15.27000000
   C    103.72000000    41.55000000    14.21000000
   C    104.24000000    42.91000000    14.68000000
   O    104.96000000    43.00000000    15.67000000
   C    104.72000000    41.07000000    13.16000000
   C    103.99000000    40.04000000    12.31000000
   C    106.12000000    40.60000000    13.55000000
   H    104.44000000    40.40000000    15.82000000
   H    102.75000000    41.84000000    13.80000000
   H    104.93000000    41.87000000    12.46000000
   H    104.67000000    39.62000000    11.56000000
   H    103.65000000    39.20000000    12.92000000
   H    103.18000000    40.49000000    11.73000000
   H    106.61000000    41.37000000    14.15000000
   H    106.04000000    39.66000000    14.09000000
   H    106.65000000    40.49000000    12.60000000
   N    103.94000000    43.99000000    13.97000000
   C    104.38000000    45.35000000    14.23000000
   C    105.28000000    45.95000000    13.16000000
   O    106.00000000    46.89000000    13.51000000
   C    103.11000000    46.18000000    14.30000000
   C    103.30000000    47.59000000    14.85000000
   N    103.84000000    47.87000000    16.04000000
   O    102.99000000    48.51000000    14.10000000
   H    103.41000000    43.76000000    13.14000000
   H    104.89000000    45.27000000    15.19000000
   H    102.47000000    45.65000000    15.01000000
   H    102.61000000    46.15000000    13.33000000
   H    104.02000000    47.16000000    16.74000000
   H    103.97000000    48.86000000    16.16000000
   N    105.20000000    45.43000000    11.94000000
   C    106.07000000    45.75000000    10.83000000
   C    105.53000000    45.30000000     9.48000000
   O    104.75000000    44.37000000     9.31000000
   C    107.42000000    45.05000000    11.00000000
   C    108.38000000    45.01000000     9.84000000
   C    108.35000000    43.90000000     8.99000000
   C    109.18000000    46.13000000     9.59000000
   C    109.09000000    43.92000000     7.80000000
   C    109.99000000    46.11000000     8.45000000
   C    109.91000000    45.04000000     7.54000000
   O    110.64000000    45.05000000     6.39000000
   H    104.57000000    44.66000000    11.73000000
   H    106.21000000    46.83000000    10.87000000
   H    107.24000000    44.01000000    11.24000000
   H    107.96000000    45.46000000    11.85000000
   H    107.56000000    43.16000000     9.03000000
   H    109.18000000    47.02000000    10.20000000
   H    109.08000000    43.10000000     7.11000000
   H    110.69000000    46.93000000     8.30000000
   H    110.39000000    44.26000000     5.89000000
   N    105.64000000    46.22000000     8.52000000
   C    105.04000000    46.18000000     7.20000000
   C    103.55000000    46.49000000     7.31000000
   O    103.19000000    47.50000000     7.91000000
   C    105.74000000    47.20000000     6.31000000
   C    107.23000000    46.92000000     6.37000000
   C    107.90000000    47.57000000     5.17000000
   O    108.23000000    46.86000000     4.19000000
   O    108.20000000    48.78000000     5.27000000
   H    106.16000000    47.06000000     8.74000000
   H    105.21000000    45.17000000     6.83000000
   H    105.51000000    48.21000000     6.67000000
   H    105.52000000    47.16000000     5.24000000
   H    107.39000000    45.84000000     6.38000000
   H    107.56000000    47.42000000     7.28000000
   N    102.68000000    45.79000000     6.57000000
   C    101.26000000    46.08000000     6.55000000
   C    100.77000000    45.72000000     7.95000000
   O    100.80000000    44.57000000     8.36000000
   C    100.57000000    45.34000000     5.41000000
   C     99.12000000    45.80000000     5.26000000
   C     98.28000000    44.53000000     5.32000000
   O     98.07000000    43.91000000     4.25000000
   O     97.71000000    44.22000000     6.39000000
   H    102.97000000    45.02000000     6.00000000
   H    101.03000000    47.14000000     6.39000000
   H    100.64000000    44.28000000     5.64000000
   H    101.07000000    45.56000000     4.47000000
   H     98.99000000    46.25000000     4.28000000
   H     98.80000000    46.42000000     6.10000000
   N    100.46000000    46.75000000     8.75000000
   C     99.75000000    46.67000000    10.01000000
   H     98.74900000    46.27300000     9.83800000
   H    100.29000000    46.01100000    10.69100000
   H     99.67500000    47.66500000    10.44900000
   H    100.63000000    47.69000000     8.41000000
  Ca     95.78000000    42.46000000     5.84000000
   O     98.08000000    41.11000000     7.21000000
   H     98.23000000    40.45000000     7.88000000
   H     98.86000000    41.65000000     7.22000000
   O     96.80000000    40.72000000     4.09000000
   H     97.17000000    39.99000000     4.58000000
   H     96.85000000    40.46000000     3.17000000
   O     94.23000000    40.01000000     5.95000000
   H     93.89000000    40.04000000     6.85000000
   H     94.17000000    39.09000000     5.71000000

Ca 1.00



