%chk=loop4.holoCaM.run72.water2.chk
%nprocshared=20
%mem=10GB
%nosave
#b3lyp/svp scf=(tight,noincore,xqc) Test 
#IOP(5/87=12) Density=Current Pop=(MK,readradii) iop(6/33=2) iop(6/42=6)

loop4.holoCaM.run72.water2 

   -3  1 
   C     95.04000000    50.55000000    27.03000000
   C     95.54000000    51.96000000    27.34000000
   O     95.29000000    52.86000000    26.54000000
   H     94.09600000    50.61100000    26.48800000
   H     95.77700000    50.02900000    26.41900000
   H     94.88900000    50.00400000    27.96100000
   N     96.21000000    52.21000000    28.47000000
   C     96.85000000    53.48000000    28.72000000
   C     98.22000000    53.55000000    28.07000000
   O     98.95000000    52.56000000    28.18000000
   C     96.96000000    53.54000000    30.25000000
   C     97.83000000    54.68000000    30.75000000
   O     98.39000000    54.50000000    31.85000000
   O     97.82000000    55.77000000    30.14000000
   H     96.16000000    51.51000000    29.19000000
   H     96.22000000    54.29000000    28.35000000
   H     97.40000000    52.64000000    30.66000000
   H     95.98000000    53.72000000    30.69000000
   N     98.49000000    54.69000000    27.44000000
   C     99.77000000    54.99000000    26.83000000
   C    100.74000000    55.76000000    27.72000000
   O    101.92000000    55.82000000    27.38000000
   C     99.53000000    55.59000000    25.45000000
   C     99.21000000    57.08000000    25.56000000
   C     98.56000000    54.70000000    24.68000000
   C     99.52000000    57.78000000    24.24000000
   H     97.76000000    55.39000000    27.43000000
   H    100.35000000    54.08000000    26.69000000
   H    100.48000000    55.56000000    24.92000000
   H     99.76000000    57.59000000    26.35000000
   H     98.14000000    57.21000000    25.73000000
   H     98.78000000    54.92000000    23.63000000
   H     98.63000000    53.64000000    24.88000000
   H     97.55000000    55.10000000    24.82000000
   H     99.26000000    58.82000000    24.45000000
   H    100.58000000    57.76000000    23.97000000
   H     98.88000000    57.32000000    23.49000000
   N    100.32000000    56.23000000    28.90000000
   C    101.09000000    57.11000000    29.76000000
   C    101.79000000    56.52000000    30.97000000
   O    102.92000000    56.92000000    31.24000000
   C    100.24000000    58.29000000    30.23000000
   C     99.48000000    58.87000000    29.05000000
   O     98.32000000    58.51000000    28.74000000
   O     99.93000000    59.88000000    28.47000000
   H     99.33000000    56.25000000    29.06000000
   H    101.91000000    57.54000000    29.19000000
   H    100.81000000    58.97000000    30.87000000
   H     99.42000000    57.83000000    30.77000000
   N    101.09000000    55.60000000    31.62000000
   C    101.36000000    55.22000000    33.00000000
   C    100.57000000    55.96000000    34.07000000
   O    100.93000000    55.95000000    35.24000000
   H    100.17000000    55.36000000    31.29000000
   H    102.42000000    55.32000000    33.20000000
   H    101.06000000    54.17000000    32.94000000
   N     99.50000000    56.66000000    33.70000000
   C     98.64000000    57.38000000    34.62000000
   C     97.48000000    56.52000000    35.11000000
   O     96.87000000    56.83000000    36.13000000
   C     98.15000000    58.70000000    34.03000000
   C     97.35000000    58.61000000    32.74000000
   O     97.61000000    59.27000000    31.71000000
   O     96.42000000    57.79000000    32.67000000
   H     99.22000000    56.55000000    32.73000000
   H     99.13000000    57.70000000    35.54000000
   H     98.96000000    59.33000000    33.67000000
   H     97.62000000    59.25000000    34.81000000
   N     97.17000000    55.42000000    34.43000000
   C     96.28000000    54.42000000    34.98000000
   C     94.89000000    54.40000000    34.35000000
   O     94.05000000    53.60000000    34.75000000
   H     97.64000000    55.28000000    33.55000000
   H     96.13000000    54.46000000    36.06000000
   H     96.74000000    53.45000000    34.77000000
   N     94.62000000    55.43000000    33.55000000
   C     93.33000000    55.73000000    32.96000000
   C     93.40000000    55.79000000    31.44000000
   O     94.47000000    56.00000000    30.88000000
   C     92.72000000    56.96000000    33.62000000
   C     92.27000000    56.80000000    35.07000000
   C     91.53000000    58.02000000    35.61000000
   N     92.27000000    59.06000000    35.97000000
   O     90.32000000    58.03000000    35.84000000
   H     95.40000000    56.00000000    33.23000000
   H     92.62000000    54.91000000    33.12000000
   H     91.89000000    57.39000000    33.05000000
   H     93.36000000    57.84000000    33.64000000
   H     93.11000000    56.63000000    35.74000000
   H     91.73000000    55.87000000    35.21000000
   H     93.26000000    59.06000000    35.77000000
   H     91.72000000    59.88000000    36.22000000
   N     92.22000000    55.71000000    30.81000000
   C     92.06000000    55.86000000    29.37000000
   C     91.12000000    57.04000000    29.22000000
   O     89.99000000    57.09000000    29.71000000
   C     91.45000000    54.62000000    28.73000000
   C     92.57000000    53.58000000    28.77000000
   C     90.17000000    53.98000000    29.25000000
   H     91.42000000    55.58000000    31.40000000
   H     92.99000000    56.09000000    28.85000000
   H     91.31000000    54.88000000    27.68000000
   H     92.30000000    52.68000000    28.22000000
   H     93.49000000    53.96000000    28.32000000
   H     92.73000000    53.38000000    29.82000000
   H     89.54000000    54.72000000    29.74000000
   H     89.71000000    53.40000000    28.45000000
   H     90.39000000    53.33000000    30.10000000
   N     91.70000000    58.16000000    28.79000000
   C     91.00000000    59.39000000    28.46000000
   C     90.22000000    59.08000000    27.20000000
   O     90.41000000    58.09000000    26.49000000
   C     92.07000000    60.47000000    28.28000000
   C     92.51000000    60.66000000    26.83000000
   N     93.60000000    60.03000000    26.40000000
   O     91.88000000    61.43000000    26.11000000
   H     92.63000000    58.05000000    28.39000000
   H     90.32000000    59.68000000    29.26000000
   H     93.00000000    60.19000000    28.78000000
   H     91.61000000    61.38000000    28.64000000
   H     94.09000000    59.42000000    27.04000000
   H     93.86000000    60.13000000    25.43000000
   N     89.24000000    59.93000000    26.88000000
   C     88.41000000    59.79000000    25.70000000
   C     89.18000000    59.51000000    24.42000000
   O     88.75000000    58.63000000    23.67000000
   C     87.42000000    60.95000000    25.58000000
   C     86.57000000    60.90000000    24.33000000
   C     85.87000000    59.75000000    23.94000000
   C     86.50000000    62.10000000    23.61000000
   C     85.22000000    59.71000000    22.70000000
   C     85.82000000    62.07000000    22.39000000
   C     85.18000000    60.89000000    21.94000000
   O     84.48000000    60.83000000    20.78000000
   H     88.98000000    60.62000000    27.57000000
   H     87.91000000    58.83000000    25.82000000
   H     87.93000000    61.90000000    25.68000000
   H     86.72000000    60.95000000    26.42000000
   H     85.92000000    58.92000000    24.63000000
   H     86.97000000    62.98000000    24.00000000
   H     84.60000000    58.90000000    22.33000000
   H     85.85000000    62.95000000    21.76000000
   H     84.55000000    61.60000000    20.21000000
   N     90.30000000    60.17000000    24.14000000
   C     91.11000000    59.85000000    22.99000000
   C     91.92000000    58.56000000    23.06000000
   O     92.38000000    58.13000000    22.01000000
   C     92.07000000    61.01000000    22.73000000
   C     91.39000000    62.35000000    22.50000000
   C     92.45000000    63.43000000    22.34000000
   O     92.57000000    64.35000000    23.19000000
   O     93.10000000    63.39000000    21.28000000
   H     90.58000000    60.96000000    24.71000000
   H     90.42000000    59.73000000    22.15000000
   H     92.68000000    60.74000000    21.87000000
   H     92.74000000    61.14000000    23.58000000
   H     90.78000000    62.58000000    23.38000000
   H     90.75000000    62.32000000    21.62000000
   N     91.99000000    57.88000000    24.20000000
   C     92.47000000    56.52000000    24.37000000
   C     91.27000000    55.61000000    24.18000000
   O     91.42000000    54.49000000    23.69000000
   C     93.04000000    56.35000000    25.78000000
   C     94.46000000    56.89000000    25.88000000
   C     94.99000000    57.12000000    27.29000000
   O     94.37000000    57.88000000    28.06000000
   O     95.97000000    56.49000000    27.75000000
   H     91.48000000    58.32000000    24.95000000
   H     93.23000000    56.29000000    23.63000000
   H     93.06000000    55.28000000    26.02000000
   H     92.45000000    56.79000000    26.58000000
   H     94.52000000    57.83000000    25.34000000
   H     95.15000000    56.18000000    25.43000000
   N     90.04000000    55.95000000    24.55000000
   C     88.88000000    55.10000000    24.40000000
   H     88.06300000    55.67500000    23.96500000
   H     89.12400000    54.26400000    23.74500000
   H     88.57800000    54.72100000    25.37600000
   H     89.94000000    56.70000000    25.23000000
  Ca     96.23000000    57.88000000    29.98000000
   O     95.69000000    60.49000000    28.83000000
   H     95.47000000    61.37000000    29.14000000
   H     96.38000000    60.63000000    28.18000000
   O     94.59000000    59.22000000    31.61000000
   H     94.22000000    59.94000000    32.13000000
   H     95.22000000    58.80000000    32.20000000

Ca 1.00



