%chk=loop2.apoCaM-CA-Ng.Init293.run37.water6.chk
%nprocshared=20
%mem=10GB
%nosave
#b3lyp/svp scf=(tight,noincore,xqc) Test 
#IOP(5/87=12) Density=Current Pop=(MK,readradii) iop(6/33=2) iop(6/42=6)

loop2.apoCaM-CA-Ng.Init293.run37.water6 

   -2  1 
   C     47.48000000    69.00000000   119.47000000
   C     47.67000000    69.08000000   120.97000000
   O     47.71000000    70.20000000   121.47000000
   H     46.80300000    69.79100000   119.14700000
   H     48.44300000    69.12200000   118.97400000
   H     47.05600000    68.03100000   119.20800000
   N     47.76000000    67.93000000   121.65000000
   C     47.81000000    67.81000000   123.09000000
   C     49.24000000    67.97000000   123.58000000
   O     49.52000000    68.70000000   124.54000000
   C     47.10000000    66.52000000   123.49000000
   C     47.10000000    66.35000000   125.00000000
   O     46.39000000    67.15000000   125.64000000
   O     47.82000000    65.46000000   125.51000000
   H     47.48000000    67.08000000   121.18000000
   H     47.17000000    68.61000000   123.48000000
   H     47.57000000    65.65000000   123.03000000
   H     46.05000000    66.62000000   123.20000000
   N     50.14000000    67.13000000   123.07000000
   C     51.55000000    67.10000000   123.40000000
   C     52.20000000    68.47000000   123.46000000
   O     53.18000000    68.66000000   124.18000000
   C     51.68000000    66.22000000   124.64000000
   H     49.82000000    66.52000000   122.33000000
   H     52.01000000    66.56000000   122.57000000
   H     52.74000000    66.09000000   124.85000000
   H     51.34000000    66.79000000   125.51000000
   H     51.16000000    65.27000000   124.52000000
   N     51.80000000    69.36000000   122.54000000
   C     52.23000000    70.74000000   122.49000000
   C     51.99000000    71.59000000   123.73000000
   O     52.59000000    72.65000000   123.87000000
   C     53.63000000    70.70000000   121.89000000
   C     53.75000000    69.84000000   120.64000000
   O     52.99000000    70.17000000   119.70000000
   O     54.59000000    68.92000000   120.64000000
   H     51.16000000    69.04000000   121.83000000
   H     51.56000000    71.16000000   121.74000000
   H     54.41000000    70.44000000   122.60000000
   H     53.92000000    71.73000000   121.67000000
   N     50.95000000    71.25000000   124.50000000
   C     50.61000000    71.94000000   125.72000000
   C     50.12000000    73.38000000   125.63000000
   O     49.46000000    73.73000000   124.66000000
   H     50.44000000    70.39000000   124.34000000
   H     51.46000000    71.84000000   126.40000000
   H     49.85000000    71.33000000   126.21000000
   N     50.64000000    74.22000000   126.53000000
   C     50.58000000    75.67000000   126.55000000
   C     49.16000000    76.19000000   126.43000000
   O     48.96000000    77.27000000   125.87000000
   C     51.56000000    76.19000000   125.50000000
   C     53.04000000    76.08000000   125.82000000
   N     53.69000000    75.01000000   125.36000000
   O     53.60000000    76.88000000   126.57000000
   H     51.31000000    73.78000000   127.14000000
   H     50.97000000    76.00000000   127.51000000
   H     51.31000000    77.25000000   125.38000000
   H     51.44000000    75.71000000   124.53000000
   H     53.26000000    74.46000000   124.63000000
   H     54.63000000    74.76000000   125.64000000
   N     48.15000000    75.49000000   126.95000000
   C     46.76000000    75.90000000   126.91000000
   C     45.97000000    75.47000000   125.68000000
   O     44.75000000    75.61000000   125.70000000
   H     48.40000000    74.68000000   127.50000000
   H     46.64000000    76.98000000   126.96000000
   H     46.29000000    75.48000000   127.80000000
   N     46.62000000    74.81000000   124.72000000
   C     46.02000000    74.07000000   123.63000000
   C     46.41000000    74.67000000   122.29000000
   O     47.43000000    75.34000000   122.19000000
   C     46.52000000    72.63000000   123.72000000
   C     46.53000000    72.14000000   125.16000000
   O     45.77000000    71.75000000   122.91000000
   H     47.63000000    74.80000000   124.84000000
   H     44.93000000    74.09000000   123.71000000
   H     47.56000000    72.64000000   123.40000000
   H     46.37000000    71.17000000   122.43000000
   H     45.53000000    72.12000000   125.58000000
   H     46.99000000    71.15000000   125.26000000
   H     47.24000000    72.69000000   125.78000000
   N     45.58000000    74.57000000   121.24000000
   C     45.91000000    75.08000000   119.93000000
   C     47.21000000    74.49000000   119.42000000
   O     47.74000000    73.50000000   119.92000000
   C     44.77000000    74.91000000   118.93000000
   C     44.20000000    73.50000000   119.07000000
   C     43.70000000    75.91000000   119.35000000
   C     43.20000000    73.09000000   117.99000000
   H     44.66000000    74.21000000   121.47000000
   H     46.01000000    76.17000000   119.97000000
   H     45.00000000    75.18000000   117.90000000
   H     43.61000000    73.45000000   119.99000000
   H     45.06000000    72.83000000   118.97000000
   H     43.49000000    75.93000000   120.42000000
   H     44.06000000    76.92000000   119.18000000
   H     42.78000000    75.79000000   118.77000000
   H     43.23000000    72.00000000   118.04000000
   H     42.20000000    73.48000000   118.18000000
   H     43.58000000    73.40000000   117.02000000
   N     47.83000000    75.21000000   118.47000000
   C     49.20000000    75.04000000   118.03000000
   C     50.14000000    76.15000000   118.46000000
   O     50.64000000    76.89000000   117.62000000
   C     49.23000000    74.86000000   116.52000000
   C     50.51000000    74.34000000   115.88000000
   O     50.53000000    74.10000000   114.65000000
   O     51.50000000    74.01000000   116.56000000
   H     47.32000000    75.98000000   118.06000000
   H     49.60000000    74.17000000   118.56000000
   H     48.90000000    75.73000000   115.95000000
   H     48.50000000    74.08000000   116.30000000
   N     50.23000000    76.35000000   119.78000000
   C     51.06000000    77.35000000   120.43000000
   C     50.84000000    78.79000000   119.98000000
   O     51.82000000    79.44000000   119.65000000
   C     50.91000000    77.29000000   121.95000000
   C     51.91000000    78.12000000   122.72000000
   C     51.57000000    79.41000000   123.16000000
   C     53.19000000    77.64000000   123.00000000
   C     52.40000000    80.22000000   123.94000000
   C     54.08000000    78.46000000   123.72000000
   C     53.66000000    79.69000000   124.25000000
   H     49.81000000    75.61000000   120.32000000
   H     52.09000000    77.19000000   120.10000000
   H     51.00000000    76.26000000   122.28000000
   H     49.92000000    77.56000000   122.31000000
   H     50.58000000    79.81000000   122.98000000
   H     53.56000000    76.69000000   122.65000000
   H     52.11000000    81.18000000   124.34000000
   H     55.05000000    78.03000000   123.89000000
   H     54.36000000    80.39000000   124.67000000
   N     49.66000000    79.40000000   120.12000000
   C     48.33000000    78.92000000   120.45000000
   C     47.43000000    78.78000000   119.23000000
   O     46.23000000    78.55000000   119.32000000
   C     47.86000000    79.94000000   121.49000000
   C     48.31000000    81.29000000   120.95000000
   C     49.61000000    80.84000000   120.29000000
   H     48.35000000    78.02000000   121.06000000
   H     46.77000000    79.91000000   121.56000000
   H     48.38000000    79.83000000   122.43000000
   H     47.60000000    81.68000000   120.22000000
   H     48.54000000    81.97000000   121.77000000
   H     49.87000000    81.28000000   119.32000000
   H     50.40000000    81.20000000   120.96000000
   N     48.02000000    78.96000000   118.05000000
   C     47.32000000    79.28000000   116.82000000
   C     46.35000000    78.23000000   116.30000000
   O     46.66000000    77.05000000   116.41000000
   C     48.35000000    79.62000000   115.75000000
   C     47.99000000    80.25000000   114.41000000
   C     47.07000000    81.44000000   114.62000000
   O     45.89000000    81.14000000   114.93000000
   O     47.47000000    82.62000000   114.62000000
   H     49.03000000    78.90000000   117.95000000
   H     46.67000000    80.14000000   116.98000000
   H     48.80000000    78.66000000   115.49000000
   H     49.16000000    80.24000000   116.12000000
   H     47.52000000    79.60000000   113.66000000
   H     48.92000000    80.53000000   113.92000000
   N     45.21000000    78.62000000   115.72000000
   C     44.24000000    77.80000000   115.03000000
   H     43.36100000    78.39900000   114.79300000
   H     44.67700000    77.41700000   114.10800000
   H     43.94900000    76.96600000   115.66800000
   H     45.11000000    79.62000000   115.79000000
  Ca     52.12000000    71.64000000   117.80700000
   O     51.94000000    73.26000000   119.99700000
   H     51.08000000    73.27000000   120.41700000
   H     52.49000000    73.82000000   120.54700000
   O     51.74000000    69.11000000   117.15700000
   H     52.47000000    68.49000000   117.14700000
   H     50.96000000    68.56000000   117.18700000
   O     49.97000000    71.13000000   119.70700000
   H     49.36000000    71.56000000   120.30700000
   H     50.09000000    70.25000000   120.06700000
   O     49.94000000    71.16000000   116.27700000
   H     49.42000000    70.36000000   116.28700000
   H     49.54000000    71.70000000   115.59700000
   O     54.77000000    72.08000000   117.85700000
   H     55.28000000    72.89000000   117.76700000
   H     55.24000000    71.57000000   118.50700000
   O     53.53000000    70.95000000   115.68700000
   H     54.47000000    70.92000000   115.87700000
   H     53.44000000    70.46000000   114.87700000

Ca 1.00



