%chk=loop3.holoCaM-CaMKII.run76.water3.chk
%nprocshared=20
%mem=10GB
%nosave
#b3lyp/svp scf=(tight,noincore,xqc) Test 
#IOP(5/87=12) Density=Current Pop=(MK,readradii) iop(6/33=2) iop(6/42=6)

loop3.holoCaM-CaMKII.run76.water3 

   0  1 
   C     33.00000000    32.36000000     4.00000000
   C     34.01000000    31.25000000     3.76000000
   O     34.63000000    31.14000000     2.70000000
   H     32.08500000    31.93500000     4.41200000
   H     33.41400000    33.08200000     4.70400000
   H     32.77600000    32.85800000     3.05700000
   N     34.29000000    30.34000000     4.69000000
   C     35.15000000    29.20000000     4.42000000
   C     34.42000000    28.23000000     3.49000000
   O     33.40000000    27.65000000     3.86000000
   C     35.51000000    28.55000000     5.75000000
   C     36.49000000    27.38000000     5.72000000
   O     36.60000000    26.71000000     6.77000000
   O     37.07000000    27.18000000     4.63000000
   H     33.76000000    30.41000000     5.54000000
   H     36.09000000    29.53000000     3.97000000
   H     34.52000000    28.17000000     6.02000000
   H     35.92000000    29.32000000     6.40000000
   N     34.95000000    27.76000000     2.37000000
   C     34.21000000    27.05000000     1.34000000
   C     34.12000000    25.55000000     1.54000000
   O     33.09000000    24.95000000     1.26000000
   C     34.90000000    27.28000000     0.00000000
   C     34.11000000    26.95000000    -1.26000000
   C     34.65000000    27.82000000    -2.40000000
   C     34.01000000    27.46000000    -3.73000000
   N     32.61000000    27.91000000    -3.74000000
   H     35.91000000    27.99000000     2.17000000
   H     33.20000000    27.45000000     1.28000000
   H     35.77000000    26.62000000     0.01000000
   H     35.36000000    28.27000000     0.00000000
   H     33.13000000    27.34000000    -0.99000000
   H     34.11000000    25.88000000    -1.46000000
   H     35.69000000    27.56000000    -2.56000000
   H     34.63000000    28.90000000    -2.21000000
   H     34.13000000    26.39000000    -3.92000000
   H     34.63000000    27.90000000    -4.52000000
   H     32.15000000    27.58000000    -4.58000000
   H     31.98000000    27.45000000    -3.10000000
   H     32.50000000    28.90000000    -3.62000000
   N     35.10000000    24.95000000     2.23000000
   C     35.02000000    23.60000000     2.74000000
   C     34.86000000    23.46000000     4.25000000
   O     34.72000000    22.37000000     4.79000000
   C     36.24000000    22.79000000     2.31000000
   C     37.63000000    23.34000000     2.60000000
   O     37.82000000    24.46000000     3.12000000
   O     38.53000000    22.54000000     2.26000000
   H     35.86000000    25.55000000     2.52000000
   H     34.25000000    23.00000000     2.26000000
   H     36.22000000    22.80000000     1.22000000
   H     36.27000000    21.78000000     2.71000000
   N     34.78000000    24.57000000     4.98000000
   C     34.44000000    24.57000000     6.39000000
   C     35.41000000    23.91000000     7.36000000
   O     34.96000000    23.52000000     8.44000000
   H     34.97000000    25.44000000     4.51000000
   H     33.48000000    24.05000000     6.43000000
   H     34.20000000    25.58000000     6.72000000
   N     36.69000000    23.79000000     7.02000000
   C     37.75000000    23.32000000     7.89000000
   C     38.06000000    24.28000000     9.03000000
   O     38.66000000    23.89000000    10.03000000
   C     39.04000000    23.01000000     7.14000000
   C     39.85000000    24.17000000     6.57000000
   N     41.12000000    24.25000000     6.99000000
   O     39.31000000    25.02000000     5.87000000
   H     36.87000000    23.99000000     6.04000000
   H     37.43000000    22.39000000     8.35000000
   H     38.91000000    22.35000000     6.28000000
   H     39.60000000    22.33000000     7.78000000
   H     41.45000000    23.49000000     7.57000000
   H     41.73000000    25.01000000     6.75000000
   N     37.72000000    25.56000000     8.92000000
   C     37.97000000    26.54000000     9.96000000
   C     38.76000000    27.75000000     9.50000000
   O     39.00000000    28.56000000    10.40000000
   H     37.15000000    25.79000000     8.11000000
   H     38.49000000    26.08000000    10.81000000
   H     37.07000000    27.10000000    10.20000000
   N     39.22000000    27.86000000     8.25000000
   C     40.12000000    28.94000000     7.92000000
   C     39.85000000    29.45000000     6.51000000
   O     39.59000000    28.63000000     5.64000000
   C     41.51000000    28.33000000     8.03000000
   C     42.09000000    27.89000000     9.35000000
   C     42.70000000    28.73000000    10.29000000
   C     41.91000000    26.53000000     9.66000000
   C     43.12000000    28.20000000    11.51000000
   C     42.37000000    25.98000000    10.86000000
   C     43.01000000    26.83000000    11.79000000
   O     43.51000000    26.22000000    12.90000000
   H     39.11000000    27.07000000     7.63000000
   H     40.10000000    29.80000000     8.60000000
   H     42.15000000    29.12000000     7.63000000
   H     41.53000000    27.50000000     7.32000000
   H     42.94000000    29.76000000    10.08000000
   H     41.37000000    25.87000000     9.00000000
   H     43.66000000    28.79000000    12.25000000
   H     42.30000000    24.93000000    11.12000000
   H     44.03000000    26.87000000    13.38000000
   N     39.88000000    30.78000000     6.39000000
   C     39.53000000    31.59000000     5.24000000
   C     40.87000000    31.94000000     4.60000000
   O     41.93000000    32.18000000     5.18000000
   C     38.82000000    32.88000000     5.65000000
   C     37.50000000    32.52000000     6.32000000
   C     38.57000000    33.77000000     4.43000000
   C     36.82000000    33.64000000     7.11000000
   H     40.15000000    31.23000000     7.25000000
   H     38.99000000    31.00000000     4.50000000
   H     39.43000000    33.40000000     6.38000000
   H     37.59000000    31.75000000     7.09000000
   H     36.80000000    32.10000000     5.60000000
   H     37.87000000    34.54000000     4.75000000
   H     39.50000000    34.21000000     4.06000000
   H     37.97000000    33.29000000     3.65000000
   H     35.87000000    33.30000000     7.53000000
   H     37.41000000    33.83000000     8.00000000
   H     36.76000000    34.53000000     6.49000000
   N     40.78000000    31.94000000     3.27000000
   C     41.92000000    32.12000000     2.39000000
   C     41.50000000    33.01000000     1.23000000
   O     40.33000000    33.36000000     1.13000000
   C     42.35000000    30.72000000     1.95000000
   O     41.38000000    30.30000000     1.02000000
   H     39.87000000    31.73000000     2.91000000
   H     42.67000000    32.70000000     2.93000000
   H     42.41000000    30.00000000     2.76000000
   H     43.27000000    30.89000000     1.40000000
   H     40.71000000    29.80000000     1.51000000
   N     42.41000000    33.57000000     0.43000000
   C     42.16000000    34.70000000    -0.44000000
   C     41.20000000    34.37000000    -1.58000000
   O     40.41000000    35.21000000    -2.01000000
   C     43.48000000    35.13000000    -1.08000000
   H     43.37000000    33.36000000     0.67000000
   H     41.75000000    35.41000000     0.28000000
   H     43.90000000    34.17000000    -1.39000000
   H     43.27000000    35.78000000    -1.93000000
   H     44.17000000    35.58000000    -0.37000000
   N     41.13000000    33.15000000    -2.11000000
   C     40.19000000    32.73000000    -3.13000000
   C     38.82000000    32.43000000    -2.54000000
   O     37.85000000    32.70000000    -3.25000000
   C     40.70000000    31.56000000    -3.97000000
   H     41.78000000    32.43000000    -1.81000000
   H     40.12000000    33.59000000    -3.80000000
   H     41.44000000    31.84000000    -4.71000000
   H     41.02000000    30.67000000    -3.43000000
   H     39.78000000    31.33000000    -4.51000000
   N     38.69000000    32.00000000    -1.29000000
   C     37.55000000    31.76000000    -0.44000000
   C     36.93000000    33.12000000    -0.14000000
   O     35.71000000    33.26000000    -0.15000000
   C     37.95000000    30.98000000     0.81000000
   C     38.22000000    29.55000000     0.35000000
   C     38.44000000    28.59000000     1.51000000
   O     37.88000000    27.47000000     1.53000000
   O     39.28000000    28.91000000     2.38000000
   H     39.61000000    31.80000000    -0.92000000
   H     36.74000000    31.27000000    -0.98000000
   H     37.11000000    30.96000000     1.51000000
   H     38.83000000    31.44000000     1.27000000
   H     39.12000000    29.55000000    -0.27000000
   H     37.34000000    29.20000000    -0.19000000
   N     37.74000000    34.12000000     0.20000000
   C     37.36000000    35.50000000     0.44000000
   H     36.38800000    35.52800000     0.93300000
   H     38.10500000    35.97700000     1.07800000
   H     37.30000000    36.03100000    -0.51000000
   H     38.65000000    33.83000000     0.53000000
  Ca     39.30000000    26.51000000     3.69000000
   O     41.20000000    26.85000000     1.47000000
   H     41.02000000    27.39000000     0.70000000
   H     41.16000000    25.95000000     1.15000000
   O     41.87000000    26.62000000     4.19000000
   H     42.27000000    26.27000000     4.99000000
   H     42.51000000    26.41000000     3.50000000
   O     40.49000000    24.52000000     2.40000000
   H     41.26000000    23.97000000     2.60000000
   H     39.78000000    23.89000000     2.28000000

Ca 1.00



