%chk=loop3.apoCaM-CA-Ng.Init295.run95.water5.chk
%nprocshared=20
%mem=10GB
%nosave
#b3lyp/svp scf=(tight,noincore,xqc) Test 
#IOP(5/87=12) Density=Current Pop=(MK,readradii) iop(6/33=2) iop(6/42=6)

loop3.apoCaM-CA-Ng.Init295.run95.water5 

   0  1 
   C     88.82000000    85.23000000    76.02000000
   C     87.58000000    84.35000000    75.96000000
   O     86.97000000    84.35000000    74.89000000
   H     89.62900000    84.75500000    75.46600000
   H     88.59900000    86.20100000    75.57700000
   H     89.12100000    85.36400000    77.05900000
   N     87.17000000    83.64000000    77.01000000
   C     86.12000000    82.64000000    76.99000000
   C     85.26000000    82.68000000    78.25000000
   O     85.76000000    82.86000000    79.36000000
   C     86.81000000    81.31000000    76.73000000
   C     85.82000000    80.17000000    76.58000000
   O     85.70000000    79.58000000    75.49000000
   O     85.29000000    79.65000000    77.59000000
   H     87.67000000    83.78000000    77.87000000
   H     85.43000000    82.93000000    76.19000000
   H     87.52000000    81.05000000    77.52000000
   H     87.39000000    81.43000000    75.81000000
   N     83.94000000    82.49000000    78.13000000
   C     83.00000000    82.77000000    79.20000000
   C     82.96000000    81.62000000    80.20000000
   O     82.27000000    81.85000000    81.20000000
   C     81.68000000    83.20000000    78.59000000
   C     80.66000000    83.99000000    79.40000000
   C     81.11000000    85.41000000    79.73000000
   C     79.95000000    86.13000000    80.40000000
   N     80.26000000    87.53000000    80.73000000
   H     83.54000000    82.34000000    77.22000000
   H     83.36000000    83.66000000    79.70000000
   H     81.07000000    82.37000000    78.23000000
   H     81.88000000    83.70000000    77.64000000
   H     80.52000000    83.49000000    80.36000000
   H     79.64000000    83.99000000    79.01000000
   H     81.46000000    85.89000000    78.82000000
   H     81.93000000    85.32000000    80.44000000
   H     79.72000000    85.66000000    81.36000000
   H     79.04000000    86.07000000    79.79000000
   H     80.87000000    88.01000000    80.09000000
   H     79.44000000    88.10000000    80.92000000
   H     80.83000000    87.62000000    81.56000000
   N     83.53000000    80.44000000    79.98000000
   C     83.53000000    79.30000000    80.88000000
   C     84.93000000    78.77000000    81.15000000
   O     85.11000000    78.12000000    82.18000000
   C     82.68000000    78.14000000    80.39000000
   C     83.12000000    77.51000000    79.08000000
   O     82.32000000    77.73000000    78.15000000
   O     84.20000000    76.89000000    78.94000000
   H     84.05000000    80.32000000    79.12000000
   H     83.16000000    79.57000000    81.87000000
   H     81.64000000    78.47000000    80.33000000
   H     82.71000000    77.35000000    81.15000000
   N     85.90000000    79.03000000    80.28000000
   C     87.28000000    78.73000000    80.64000000
   C     87.80000000    77.30000000    80.69000000
   O     88.91000000    77.02000000    81.12000000
   H     85.70000000    79.35000000    79.35000000
   H     87.33000000    79.09000000    81.66000000
   H     87.89000000    79.34000000    79.98000000
   N     86.90000000    76.39000000    80.29000000
   C     87.19000000    74.98000000    80.19000000
   C     88.31000000    74.67000000    79.20000000
   O     88.40000000    75.32000000    78.16000000
   C     85.89000000    74.26000000    79.87000000
   C     85.96000000    72.75000000    79.71000000
   N     86.26000000    72.08000000    80.82000000
   O     85.81000000    72.22000000    78.61000000
   H     85.96000000    76.62000000    80.02000000
   H     87.47000000    74.72000000    81.21000000
   H     85.56000000    74.66000000    78.91000000
   H     85.20000000    74.50000000    80.68000000
   H     86.39000000    72.58000000    81.69000000
   H     86.16000000    71.08000000    80.87000000
   N     89.03000000    73.56000000    79.38000000
   C     89.99000000    72.95000000    78.48000000
   C     89.68000000    71.50000000    78.14000000
   O     90.57000000    70.89000000    77.55000000
   H     88.96000000    73.11000000    80.28000000
   H     90.99000000    72.89000000    78.90000000
   H     90.10000000    73.51000000    77.55000000
   N     88.55000000    70.85000000    78.42000000
   C     88.28000000    69.48000000    78.03000000
   C     87.81000000    69.40000000    76.58000000
   O     86.82000000    69.99000000    76.17000000
   C     87.21000000    68.91000000    78.95000000
   C     87.06000000    67.40000000    78.94000000
   C     85.94000000    66.72000000    78.44000000
   C     88.19000000    66.69000000    79.35000000
   C     85.96000000    65.32000000    78.41000000
   C     88.19000000    65.29000000    79.39000000
   C     87.05000000    64.60000000    78.93000000
   O     86.94000000    63.26000000    79.18000000
   H     87.79000000    71.43000000    78.74000000
   H     89.18000000    68.88000000    78.19000000
   H     86.31000000    69.42000000    78.62000000
   H     87.53000000    69.21000000    79.94000000
   H     85.08000000    67.28000000    78.12000000
   H     89.08000000    67.25000000    79.61000000
   H     85.07000000    64.76000000    78.17000000
   H     89.10000000    64.80000000    79.68000000
   H     87.77000000    62.95000000    79.55000000
   N     88.57000000    68.71000000    75.74000000
   C     88.39000000    68.41000000    74.33000000
   C     87.23000000    67.51000000    73.93000000
   O     86.11000000    67.62000000    74.41000000
   C     88.47000000    69.62000000    73.40000000
   C     88.09000000    69.37000000    71.94000000
   C     89.86000000    70.21000000    73.59000000
   C     88.37000000    70.46000000    70.91000000
   H     89.37000000    68.29000000    76.19000000
   H     89.28000000    67.84000000    74.05000000
   H     87.82000000    70.38000000    73.84000000
   H     87.03000000    69.13000000    71.89000000
   H     88.63000000    68.48000000    71.61000000
   H     90.25000000    70.13000000    74.61000000
   H     90.56000000    69.69000000    72.93000000
   H     89.75000000    71.25000000    73.31000000
   H     89.43000000    70.53000000    70.64000000
   H     87.59000000    70.38000000    70.17000000
   H     88.24000000    71.40000000    71.46000000
   N     87.52000000    66.56000000    73.04000000
   C     86.65000000    65.59000000    72.41000000
   C     87.13000000    64.22000000    71.94000000
   O     86.29000000    63.43000000    71.51000000
   C     86.06000000    66.29000000    71.18000000
   O     87.08000000    66.58000000    70.26000000
   H     88.51000000    66.49000000    72.85000000
   H     85.80000000    65.38000000    73.06000000
   H     85.47000000    67.18000000    71.41000000
   H     85.29000000    65.72000000    70.66000000
   H     86.73000000    67.26000000    69.68000000
   N     88.44000000    63.98000000    72.01000000
   C     89.15000000    62.83000000    71.50000000
   C     88.58000000    61.84000000    70.49000000
   O     88.38000000    60.67000000    70.83000000
   C     89.96000000    62.12000000    72.59000000
   H     89.05000000    64.61000000    72.51000000
   H     89.98000000    63.34000000    71.01000000
   H     90.70000000    61.50000000    72.09000000
   H     90.44000000    62.89000000    73.19000000
   H     89.32000000    61.55000000    73.27000000
   N     88.19000000    62.15000000    69.26000000
   C     88.16000000    63.47000000    68.65000000
   C     89.13000000    63.47000000    67.47000000
   O     89.27000000    62.47000000    66.76000000
   C     86.78000000    63.86000000    68.12000000
   H     88.03000000    61.34000000    68.68000000
   H     88.42000000    64.18000000    69.43000000
   H     86.07000000    63.73000000    68.93000000
   H     86.69000000    64.90000000    67.80000000
   H     86.52000000    63.21000000    67.29000000
   N     89.65000000    64.66000000    67.17000000
   C     89.97000000    65.83000000    67.97000000
   C     91.33000000    65.74000000    68.64000000
   O     91.50000000    66.02000000    69.82000000
   C     89.91000000    66.99000000    66.97000000
   C     89.83000000    68.30000000    67.75000000
   C     89.26000000    69.33000000    66.79000000
   O     88.01000000    69.41000000    66.78000000
   O     90.06000000    69.98000000    66.07000000
   H     90.11000000    64.55000000    66.28000000
   H     89.19000000    65.97000000    68.72000000
   H     89.01000000    66.90000000    66.36000000
   H     90.76000000    66.94000000    66.29000000
   H     90.78000000    68.62000000    68.17000000
   H     89.00000000    68.23000000    68.46000000
   N     92.35000000    65.31000000    67.89000000
   C     93.70000000    64.94000000    68.26000000
   H     94.34100000    65.82100000    68.22200000
   H     93.70200000    64.53400000    69.27100000
   H     94.07500000    64.18800000    67.56500000
   H     92.13000000    64.92000000    66.98000000
  Ca     84.39000000    77.48000000    76.31000000
   O     84.41000000    74.79000000    76.06000000
   H     83.88000000    74.02000000    75.85000000
   H     85.28000000    74.58000000    75.72000000
   O     84.82000000    77.21000000    73.83000000
   H     85.01000000    78.01000000    73.33000000
   H     84.55000000    76.57000000    73.17000000
   O     86.96000000    76.71000000    76.48000000
   H     87.34000000    76.37000000    75.68000000
   H     87.42000000    76.25000000    77.18000000
   O     82.65000000    79.42000000    75.67000000
   H     81.71000000    79.26000000    75.75000000
   H     82.72000000    80.37000000    75.59000000
   O     82.14000000    76.46000000    75.35000000
   H     81.56000000    76.17000000    76.05000000
   H     81.60000000    76.44000000    74.57000000

Ca 1.00



