%chk=loop1.apoCaM-CA-Ng.Init295.run70.water5.chk
%nprocshared=20
%mem=10GB
%nosave
#b3lyp/svp scf=(tight,noincore,xqc) Test 
#IOP(5/87=12) Density=Current Pop=(MK,readradii) iop(6/33=2) iop(6/42=6)

loop1.apoCaM-CA-Ng.Init295.run70.water5 

   0  1 
   C      4.12000000    10.00000000    55.84000000
   C      4.41000000    11.38000000    55.28000000
   O      3.65000000    12.04000000    54.58000000
   H      3.13300000     9.67500000    55.51200000
   H      4.87100000     9.29600000    55.48100000
   H      4.14700000    10.03600000    56.92900000
   N      5.59000000    11.88000000    55.66000000
   C      6.13000000    13.10000000    55.09000000
   C      6.36000000    12.89000000    53.60000000
   O      6.96000000    11.93000000    53.13000000
   C      7.34000000    13.68000000    55.81000000
   C      7.21000000    13.68000000    57.33000000
   O      7.64000000    12.73000000    58.02000000
   O      6.35000000    14.42000000    57.83000000
   H      6.14000000    11.33000000    56.30000000
   H      5.35000000    13.86000000    55.08000000
   H      7.42000000    14.71000000    55.47000000
   H      8.25000000    13.13000000    55.58000000
   N      5.99000000    13.90000000    52.81000000
   C      6.34000000    14.11000000    51.42000000
   C      7.81000000    14.38000000    51.11000000
   O      8.18000000    14.16000000    49.96000000
   C      5.43000000    15.24000000    50.95000000
   C      3.95000000    14.89000000    51.02000000
   C      2.97000000    15.85000000    50.34000000
   C      1.58000000    15.31000000    50.68000000
   N      0.48000000    16.06000000    50.06000000
   H      5.48000000    14.70000000    53.18000000
   H      6.07000000    13.17000000    50.93000000
   H      5.67000000    15.44000000    49.91000000
   H      5.58000000    16.17000000    51.49000000
   H      3.64000000    14.86000000    52.06000000
   H      3.79000000    13.89000000    50.62000000
   H      3.17000000    15.97000000    49.28000000
   H      3.02000000    16.85000000    50.77000000
   H      1.41000000    15.36000000    51.76000000
   H      1.47000000    14.30000000    50.29000000
   H     -0.35000000    15.57000000    50.36000000
   H      0.41000000    17.03000000    50.33000000
   H      0.59000000    16.03000000    49.06000000
   N      8.59000000    14.86000000    52.07000000
   C     10.04000000    14.88000000    52.02000000
   C     10.61000000    14.47000000    53.37000000
   O     10.11000000    14.93000000    54.40000000
   C     10.50000000    16.29000000    51.66000000
   C     12.00000000    16.48000000    51.73000000
   O     12.85000000    15.68000000    51.29000000
   O     12.53000000    17.40000000    52.40000000
   H      8.07000000    15.28000000    52.83000000
   H     10.40000000    14.14000000    51.30000000
   H     10.01000000    16.90000000    52.43000000
   H     10.16000000    16.54000000    50.66000000
   N     11.60000000    13.58000000    53.30000000
   C     12.41000000    13.07000000    54.38000000
   C     13.86000000    12.90000000    53.95000000
   O     14.07000000    12.33000000    52.88000000
   H     12.01000000    13.46000000    52.38000000
   H     11.92000000    12.14000000    54.68000000
   H     12.37000000    13.67000000    55.29000000
   N     14.79000000    13.44000000    54.73000000
   C     16.23000000    13.33000000    54.61000000
   C     16.90000000    12.48000000    55.68000000
   O     18.03000000    12.03000000    55.48000000
   C     16.91000000    14.70000000    54.50000000
   C     16.17000000    15.49000000    53.43000000
   O     16.17000000    14.94000000    52.31000000
   O     15.70000000    16.61000000    53.71000000
   H     14.44000000    13.96000000    55.52000000
   H     16.53000000    12.74000000    53.74000000
   H     17.96000000    14.67000000    54.23000000
   H     16.78000000    15.10000000    55.51000000
   N     16.30000000    12.27000000    56.85000000
   C     16.90000000    11.65000000    58.02000000
   C     16.42000000    10.24000000    58.31000000
   O     15.92000000     9.49000000    57.48000000
   H     15.32000000    12.50000000    56.84000000
   H     16.58000000    12.26000000    58.86000000
   H     17.99000000    11.60000000    57.97000000
   N     16.57000000     9.78000000    59.56000000
   C     16.46000000     8.42000000    60.06000000
   C     17.78000000     7.79000000    60.45000000
   O     18.56000000     8.51000000    61.08000000
   C     15.35000000     8.37000000    61.11000000
   C     14.94000000     6.94000000    61.43000000
   O     15.59000000     9.11000000    62.28000000
   H     16.99000000    10.38000000    60.25000000
   H     16.06000000     7.90000000    59.19000000
   H     14.48000000     8.81000000    60.63000000
   H     14.82000000     9.06000000    62.86000000
   H     15.76000000     6.45000000    61.94000000
   H     14.12000000     7.00000000    62.14000000
   H     14.84000000     6.23000000    60.60000000
   N     18.07000000     6.56000000    60.00000000
   C     19.29000000     5.82000000    60.27000000
   C     20.38000000     5.93000000    59.21000000
   O     21.54000000     5.63000000    59.49000000
   C     18.90000000     4.39000000    60.63000000
   C     18.53000000     3.54000000    59.42000000
   C     17.82000000     4.25000000    61.70000000
   C     18.41000000     2.05000000    59.71000000
   H     17.38000000     6.10000000    59.42000000
   H     19.66000000     6.25000000    61.20000000
   H     19.82000000     3.98000000    61.05000000
   H     19.40000000     3.55000000    58.75000000
   H     17.63000000     3.94000000    58.96000000
   H     17.96000000     3.31000000    62.24000000
   H     18.12000000     5.07000000    62.35000000
   H     16.77000000     4.26000000    61.39000000
   H     18.78000000     1.92000000    60.73000000
   H     17.41000000     1.64000000    59.59000000
   H     19.09000000     1.52000000    59.04000000
   N     19.99000000     6.38000000    58.01000000
   C     20.71000000     6.69000000    56.80000000
   C     20.17000000     5.92000000    55.60000000
   O     18.95000000     5.85000000    55.48000000
   C     20.72000000     8.21000000    56.62000000
   C     19.37000000     8.90000000    56.50000000
   O     21.36000000     8.85000000    57.70000000
   H     18.99000000     6.48000000    57.86000000
   H     21.76000000     6.39000000    56.86000000
   H     21.27000000     8.45000000    55.71000000
   H     21.43000000     9.78000000    57.47000000
   H     18.75000000     8.56000000    57.33000000
   H     19.40000000     9.98000000    56.57000000
   H     18.90000000     8.59000000    55.57000000
   N     21.01000000     5.59000000    54.62000000
   C     20.63000000     5.06000000    53.32000000
   C     20.27000000     3.58000000    53.21000000
   O     19.31000000     3.15000000    52.59000000
   C     21.64000000     5.50000000    52.28000000
   C     21.36000000     4.89000000    50.91000000
   O     22.91000000     4.94000000    52.55000000
   H     21.99000000     5.78000000    54.79000000
   H     19.69000000     5.55000000    53.06000000
   H     21.64000000     6.59000000    52.21000000
   H     23.56000000     5.33000000    51.96000000
   H     20.27000000     4.82000000    50.82000000
   H     21.75000000     5.43000000    50.05000000
   H     21.94000000     3.97000000    50.86000000
   N     20.90000000     2.84000000    54.12000000
   C     20.69000000     1.42000000    54.34000000
   C     19.50000000     1.17000000    55.26000000
   O     19.21000000     2.08000000    56.02000000
   C     21.96000000     0.63000000    54.65000000
   C     21.93000000    -0.86000000    55.00000000
   C     23.30000000    -1.54000000    55.02000000
   C     23.36000000    -2.96000000    55.59000000
   N     22.48000000    -3.96000000    54.96000000
   H     21.60000000     3.31000000    54.68000000
   H     20.29000000     1.00000000    53.42000000
   H     22.44000000     1.04000000    55.54000000
   H     22.65000000     0.70000000    53.81000000
   H     21.38000000    -1.36000000    54.20000000
   H     21.35000000    -0.93000000    55.91000000
   H     23.88000000    -1.01000000    55.77000000
   H     23.82000000    -1.45000000    54.07000000
   H     23.19000000    -2.89000000    56.66000000
   H     24.37000000    -3.32000000    55.43000000
   H     21.55000000    -3.59000000    54.85000000
   H     22.81000000    -4.05000000    54.01000000
   H     22.48000000    -4.88000000    55.39000000
   N     18.95000000    -0.04000000    55.22000000
   C     18.02000000    -0.52000000    56.22000000
   C     17.01000000    -1.40000000    55.50000000
   O     17.37000000    -2.41000000    54.90000000
   C     18.84000000    -1.29000000    57.25000000
   C     17.94000000    -1.64000000    58.43000000
   C     17.89000000    -3.15000000    58.61000000
   O     18.92000000    -3.81000000    58.91000000
   O     16.83000000    -3.79000000    58.44000000
   H     19.51000000    -0.72000000    54.73000000
   H     17.65000000     0.37000000    56.72000000
   H     19.60000000    -0.64000000    57.68000000
   H     19.32000000    -2.16000000    56.79000000
   H     16.90000000    -1.35000000    58.26000000
   H     18.28000000    -1.10000000    59.31000000
   N     15.70000000    -1.10000000    55.51000000
   C     14.88000000    -0.06000000    56.08000000
   H     13.91900000    -0.47900000    56.38000000
   H     15.38000000     0.36100000    56.95200000
   H     14.71900000     0.72300000    55.33900000
   H     15.09000000    -1.74000000    55.03000000
  Ca     15.14000000    16.99000000    51.01000000
   O     15.26000000    19.64000000    51.24000000
   H     14.77000000    20.38000000    51.59000000
   H     15.94000000    20.04000000    50.70000000
   O     15.11000000    14.94000000    49.22000000
   H     14.42000000    14.42000000    48.81000000
   H     15.78000000    14.30000000    49.45000000
   O     17.66000000    17.85000000    51.84000000
   H     18.30000000    17.14000000    51.85000000
   H     18.17000000    18.64000000    52.01000000
   O     13.70000000    18.14000000    49.29000000
   H     13.22000000    17.75000000    48.56000000
   H     13.93000000    19.02000000    48.98000000
   O     17.02000000    17.36000000    49.06000000
   H     17.08000000    17.77000000    48.20000000
   H     17.89000000    16.98000000    49.20000000

Ca 1.00



