%chk=loop3.holoCaM-CaMKII.run61.water3.chk
%nprocshared=20
%mem=10GB
%nosave
#b3lyp/svp scf=(tight,noincore,xqc) Test 
#IOP(5/87=12) Density=Current Pop=(MK,readradii) iop(6/33=2) iop(6/42=6)

loop3.holoCaM-CaMKII.run61.water3 

   0  1 
   C     25.42000000    43.16000000    18.87000000
   C     26.37000000    42.45000000    17.91000000
   O     26.95000000    43.14000000    17.07000000
   H     24.46600000    42.63400000    18.89100000
   H     25.85200000    43.16700000    19.87100000
   H     25.26200000    44.18500000    18.53400000
   N     26.64000000    41.16000000    18.08000000
   C     27.32000000    40.25000000    17.18000000
   C     26.36000000    39.79000000    16.10000000
   O     25.16000000    39.58000000    16.32000000
   C     27.86000000    39.16000000    18.11000000
   C     28.81000000    38.18000000    17.42000000
   O     29.02000000    38.16000000    16.19000000
   O     29.26000000    37.30000000    18.18000000
   H     26.25000000    40.75000000    18.92000000
   H     28.18000000    40.85000000    16.88000000
   H     27.04000000    38.63000000    18.59000000
   H     28.46000000    39.68000000    18.85000000
   N     26.82000000    39.51000000    14.88000000
   C     26.01000000    39.36000000    13.69000000
   C     26.18000000    38.04000000    12.96000000
   O     25.22000000    37.70000000    12.27000000
   C     26.26000000    40.47000000    12.67000000
   C     25.08000000    40.78000000    11.75000000
   C     25.45000000    41.77000000    10.65000000
   C     24.31000000    42.06000000     9.68000000
   N     24.70000000    41.92000000     8.26000000
   H     27.80000000    39.64000000    14.69000000
   H     24.95000000    39.36000000    13.96000000
   H     27.10000000    40.32000000    12.00000000
   H     26.38000000    41.40000000    13.22000000
   H     24.23000000    41.16000000    12.31000000
   H     24.77000000    39.88000000    11.22000000
   H     26.28000000    41.41000000    10.04000000
   H     25.75000000    42.76000000    10.96000000
   H     24.07000000    43.11000000     9.81000000
   H     23.46000000    41.38000000     9.80000000
   H     25.47000000    42.54000000     8.04000000
   H     24.95000000    40.95000000     8.14000000
   H     23.87000000    42.11000000     7.71000000
   N     27.36000000    37.41000000    12.94000000
   C     27.42000000    35.97000000    12.78000000
   C     27.27000000    35.18000000    14.07000000
   O     26.80000000    34.04000000    14.04000000
   C     28.67000000    35.50000000    12.05000000
   C     30.08000000    35.80000000    12.55000000
   O     30.29000000    36.63000000    13.45000000
   O     30.99000000    35.08000000    12.08000000
   H     28.12000000    37.85000000    13.42000000
   H     26.54000000    35.73000000    12.18000000
   H     28.63000000    35.93000000    11.04000000
   H     28.64000000    34.42000000    11.98000000
   N     27.43000000    35.79000000    15.25000000
   C     27.17000000    35.21000000    16.55000000
   C     28.16000000    34.15000000    16.99000000
   O     27.91000000    32.95000000    17.14000000
   H     27.88000000    36.70000000    15.28000000
   H     26.13000000    34.89000000    16.56000000
   H     27.29000000    35.99000000    17.30000000
   N     29.39000000    34.57000000    17.30000000
   C     30.56000000    33.73000000    17.49000000
   C     31.24000000    34.09000000    18.80000000
   O     31.96000000    33.26000000    19.36000000
   C     31.38000000    34.00000000    16.24000000
   C     32.36000000    35.16000000    16.30000000
   N     33.66000000    34.90000000    16.48000000
   O     31.94000000    36.32000000    16.23000000
   H     29.64000000    35.52000000    17.07000000
   H     30.34000000    32.66000000    17.49000000
   H     30.79000000    34.09000000    15.32000000
   H     31.99000000    33.11000000    16.05000000
   H     34.02000000    34.03000000    16.82000000
   H     34.29000000    35.66000000    16.27000000
   N     30.89000000    35.26000000    19.34000000
   C     31.28000000    35.75000000    20.64000000
   C     31.95000000    37.12000000    20.66000000
   O     32.49000000    37.51000000    21.69000000
   H     30.17000000    35.81000000    18.89000000
   H     31.92000000    35.03000000    21.15000000
   H     30.35000000    35.83000000    21.20000000
   N     31.95000000    37.87000000    19.55000000
   C     32.74000000    39.04000000    19.23000000
   C     32.04000000    40.04000000    18.33000000
   O     31.29000000    39.60000000    17.46000000
   C     34.12000000    38.72000000    18.67000000
   C     34.99000000    37.91000000    19.59000000
   C     36.03000000    38.50000000    20.32000000
   C     34.77000000    36.53000000    19.56000000
   C     36.89000000    37.71000000    21.08000000
   C     35.51000000    35.74000000    20.45000000
   C     36.56000000    36.34000000    21.16000000
   O     37.36000000    35.52000000    21.90000000
   H     31.26000000    37.58000000    18.88000000
   H     32.81000000    39.66000000    20.13000000
   H     34.56000000    39.71000000    18.51000000
   H     34.03000000    38.23000000    17.70000000
   H     36.10000000    39.58000000    20.36000000
   H     34.09000000    36.07000000    18.86000000
   H     37.73000000    38.18000000    21.58000000
   H     35.26000000    34.69000000    20.59000000
   H     37.75000000    36.02000000    22.62000000
   N     32.25000000    41.35000000    18.50000000
   C     31.63000000    42.36000000    17.67000000
   C     32.77000000    43.00000000    16.88000000
   O     33.82000000    43.26000000    17.46000000
   C     30.85000000    43.33000000    18.55000000
   C     29.85000000    42.67000000    19.50000000
   C     30.19000000    44.40000000    17.69000000
   C     29.40000000    43.47000000    20.71000000
   H     32.85000000    41.59000000    19.28000000
   H     30.94000000    41.91000000    16.96000000
   H     31.58000000    43.83000000    19.19000000
   H     30.29000000    41.75000000    19.87000000
   H     28.98000000    42.44000000    18.88000000
   H     29.50000000    45.04000000    18.25000000
   H     30.88000000    45.08000000    17.20000000
   H     29.45000000    43.96000000    17.01000000
   H     30.34000000    43.54000000    21.26000000
   H     29.00000000    44.46000000    20.50000000
   H     28.61000000    42.92000000    21.22000000
   N     32.50000000    43.27000000    15.60000000
   C     33.17000000    44.22000000    14.74000000
   C     32.34000000    45.42000000    14.32000000
   O     31.12000000    45.38000000    14.41000000
   C     33.77000000    43.47000000    13.55000000
   O     34.56000000    42.40000000    14.04000000
   H     31.62000000    42.86000000    15.31000000
   H     34.02000000    44.70000000    15.21000000
   H     34.41000000    44.17000000    13.02000000
   H     33.08000000    43.13000000    12.78000000
   H     35.48000000    42.67000000    14.04000000
   N     33.05000000    46.49000000    13.93000000
   C     32.39000000    47.74000000    13.62000000
   C     31.28000000    47.60000000    12.59000000
   O     30.23000000    48.20000000    12.83000000
   C     33.41000000    48.70000000    13.01000000
   H     34.05000000    46.44000000    14.02000000
   H     31.87000000    48.06000000    14.53000000
   H     34.36000000    48.62000000    13.54000000
   H     33.52000000    48.34000000    11.99000000
   H     33.08000000    49.73000000    12.87000000
   N     31.33000000    46.78000000    11.54000000
   C     30.18000000    46.58000000    10.68000000
   C     28.96000000    45.97000000    11.37000000
   O     27.83000000    46.20000000    10.96000000
   C     30.55000000    45.63000000     9.55000000
   H     32.17000000    46.28000000    11.30000000
   H     29.79000000    47.48000000    10.21000000
   H     30.83000000    44.63000000     9.87000000
   H     29.70000000    45.54000000     8.86000000
   H     31.34000000    46.14000000     9.00000000
   N     29.18000000    45.14000000    12.40000000
   C     28.16000000    44.39000000    13.11000000
   C     27.46000000    45.40000000    14.01000000
   O     26.24000000    45.53000000    14.07000000
   C     28.80000000    43.17000000    13.76000000
   C     29.50000000    42.14000000    12.88000000
   C     29.93000000    40.98000000    13.76000000
   O     30.86000000    41.17000000    14.56000000
   O     29.42000000    39.84000000    13.65000000
   H     30.13000000    45.10000000    12.73000000
   H     27.47000000    43.92000000    12.41000000
   H     28.00000000    42.55000000    14.18000000
   H     29.43000000    43.57000000    14.55000000
   H     30.38000000    42.61000000    12.43000000
   H     28.89000000    41.82000000    12.03000000
   N     28.24000000    46.14000000    14.81000000
   C     27.84000000    47.34000000    15.51000000
   H     26.83900000    47.20400000    15.92000000
   H     28.54100000    47.53900000    16.32100000
   H     27.83700000    48.18100000    14.81700000
   H     29.23000000    45.96000000    14.89000000
  Ca     31.31000000    38.53000000    14.88000000
   O     33.81000000    37.57000000    14.14000000
   H     34.35000000    36.78000000    14.06000000
   H     34.35000000    38.26000000    13.76000000
   O     33.62000000    40.07000000    15.49000000
   H     33.65000000    41.00000000    15.23000000
   H     34.49000000    39.90000000    15.85000000
   O     31.98000000    39.03000000    12.28000000
   H     32.37000000    38.32000000    11.77000000
   H     32.03000000    39.79000000    11.71000000

Ca 1.00



