%chk=loop1.holoCaM.run13.water2.chk
%nprocshared=20
%mem=10GB
%nosave
#b3lyp/svp scf=(tight,noincore,xqc) Test 
#IOP(5/87=12) Density=Current Pop=(MK,readradii) iop(6/33=2) iop(6/42=6)

loop1.holoCaM.run13.water2 

   0  1 
   C     42.28000000    35.88000000   -10.21000000
   C     40.78000000    36.03000000   -10.44000000
   O     40.12000000    35.00000000   -10.58000000
   H     42.77500000    36.82900000   -10.41600000
   H     42.46200000    35.59300000    -9.17400000
   H     42.67500000    35.11200000   -10.87500000
   N     40.16000000    37.21000000   -10.50000000
   C     38.85000000    37.32000000   -11.12000000
   C     38.96000000    37.05000000   -12.61000000
   O     39.22000000    37.98000000   -13.37000000
   C     38.40000000    38.75000000   -10.83000000
   C     37.14000000    39.13000000   -11.59000000
   O     37.01000000    40.30000000   -12.02000000
   O     36.32000000    38.24000000   -11.89000000
   H     40.71000000    38.04000000   -10.33000000
   H     38.11000000    36.60000000   -10.78000000
   H     39.17000000    39.49000000   -11.08000000
   H     38.19000000    38.79000000    -9.76000000
   N     39.00000000    35.80000000   -13.08000000
   C     39.37000000    35.40000000   -14.42000000
   C     38.36000000    35.83000000   -15.48000000
   O     38.78000000    36.01000000   -16.62000000
   C     39.61000000    33.89000000   -14.39000000
   C     40.37000000    33.43000000   -15.63000000
   C     40.93000000    32.02000000   -15.44000000
   C     41.62000000    31.35000000   -16.62000000
   N     42.53000000    30.26000000   -16.21000000
   H     38.71000000    35.06000000   -12.45000000
   H     40.28000000    35.91000000   -14.72000000
   H     38.65000000    33.39000000   -14.27000000
   H     40.24000000    33.78000000   -13.51000000
   H     41.14000000    34.14000000   -15.92000000
   H     39.73000000    33.46000000   -16.50000000
   H     40.09000000    31.39000000   -15.13000000
   H     41.55000000    32.02000000   -14.54000000
   H     42.24000000    32.11000000   -17.08000000
   H     40.90000000    30.98000000   -17.34000000
   H     42.13000000    29.34000000   -16.10000000
   H     43.20000000    30.19000000   -16.96000000
   H     43.02000000    30.48000000   -15.35000000
   N     37.05000000    35.89000000   -15.25000000
   C     36.02000000    36.30000000   -16.18000000
   C     35.70000000    37.79000000   -16.25000000
   O     35.42000000    38.33000000   -17.31000000
   C     34.72000000    35.53000000   -15.97000000
   C     34.32000000    35.24000000   -14.53000000
   O     33.42000000    34.38000000   -14.43000000
   O     34.91000000    35.76000000   -13.55000000
   H     36.79000000    35.73000000   -14.29000000
   H     36.40000000    36.03000000   -17.17000000
   H     34.94000000    34.53000000   -16.34000000
   H     33.88000000    36.02000000   -16.46000000
   N     35.96000000    38.43000000   -15.10000000
   C     35.97000000    39.88000000   -15.03000000
   C     34.63000000    40.40000000   -14.53000000
   O     33.86000000    40.91000000   -15.34000000
   H     35.89000000    37.85000000   -14.28000000
   H     36.01000000    40.28000000   -16.04000000
   H     36.77000000    40.11000000   -14.33000000
   N     34.35000000    40.12000000   -13.25000000
   C     33.18000000    40.68000000   -12.59000000
   C     33.56000000    41.38000000   -11.29000000
   O     32.62000000    41.79000000   -10.61000000
   C     32.18000000    39.54000000   -12.38000000
   C     32.79000000    38.35000000   -11.67000000
   O     32.53000000    37.16000000   -11.98000000
   O     33.49000000    38.50000000   -10.64000000
   H     35.17000000    39.77000000   -12.79000000
   H     32.71000000    41.41000000   -13.23000000
   H     31.78000000    39.22000000   -13.34000000
   H     31.34000000    39.90000000   -11.79000000
   N     34.80000000    41.53000000   -10.82000000
   C     35.21000000    42.20000000    -9.61000000
   C     35.25000000    41.37000000    -8.33000000
   O     35.45000000    41.84000000    -7.21000000
   H     35.56000000    41.03000000   -11.26000000
   H     34.50000000    43.00000000    -9.43000000
   H     36.15000000    42.74000000    -9.75000000
   N     35.04000000    40.05000000    -8.41000000
   C     34.90000000    39.06000000    -7.36000000
   C     35.59000000    37.74000000    -7.67000000
   O     35.79000000    37.41000000    -8.84000000
   C     33.47000000    38.80000000    -6.91000000
   C     32.72000000    40.12000000    -6.73000000
   O     32.86000000    37.99000000    -7.88000000
   H     34.63000000    39.69000000    -9.27000000
   H     35.42000000    39.44000000    -6.48000000
   H     33.43000000    38.30000000    -5.94000000
   H     32.87000000    38.38000000    -8.76000000
   H     32.40000000    40.41000000    -7.73000000
   H     31.86000000    39.99000000    -6.08000000
   H     33.31000000    40.87000000    -6.19000000
   N     35.99000000    37.06000000    -6.59000000
   C     36.57000000    35.73000000    -6.56000000
   C     35.56000000    34.69000000    -6.09000000
   O     35.14000000    34.85000000    -4.94000000
   C     37.94000000    35.72000000    -5.88000000
   C     39.01000000    36.54000000    -6.59000000
   C     38.44000000    34.32000000    -5.54000000
   C     40.26000000    36.77000000    -5.74000000
   H     35.78000000    37.43000000    -5.68000000
   H     36.69000000    35.53000000    -7.63000000
   H     37.60000000    36.21000000    -4.97000000
   H     38.66000000    37.54000000    -6.86000000
   H     39.28000000    36.01000000    -7.50000000
   H     38.46000000    33.77000000    -6.49000000
   H     39.48000000    34.28000000    -5.24000000
   H     37.77000000    33.91000000    -4.79000000
   H     40.88000000    35.88000000    -5.84000000
   H     40.82000000    37.58000000    -6.21000000
   H     39.97000000    37.07000000    -4.73000000
   N     35.23000000    33.71000000    -6.93000000
   C     34.34000000    32.62000000    -6.58000000
   C     35.11000000    31.32000000    -6.33000000
   O     36.32000000    31.42000000    -6.18000000
   C     33.37000000    32.38000000    -7.72000000
   C     33.89000000    31.94000000    -9.09000000
   O     32.30000000    31.50000000    -7.44000000
   H     35.61000000    33.64000000    -7.86000000
   H     33.71000000    32.73000000    -5.70000000
   H     33.00000000    33.38000000    -7.95000000
   H     31.48000000    31.91000000    -7.71000000
   H     34.60000000    32.66000000    -9.50000000
   H     34.43000000    30.99000000    -9.02000000
   H     33.07000000    31.79000000    -9.79000000
   N     34.49000000    30.14000000    -6.31000000
   C     35.07000000    28.87000000    -5.92000000
   C     36.26000000    28.44000000    -6.76000000
   O     37.34000000    28.18000000    -6.23000000
   C     34.05000000    27.74000000    -6.04000000
   C     34.41000000    26.36000000    -5.50000000
   O     32.83000000    28.05000000    -5.41000000
   H     33.49000000    30.16000000    -6.42000000
   H     35.40000000    28.96000000    -4.88000000
   H     33.77000000    27.63000000    -7.09000000
   H     32.19000000    27.64000000    -5.99000000
   H     34.89000000    26.53000000    -4.54000000
   H     33.51000000    25.75000000    -5.46000000
   H     35.10000000    25.83000000    -6.16000000
   N     36.03000000    28.40000000    -8.08000000
   C     36.94000000    28.02000000    -9.14000000
   C     38.21000000    28.83000000    -8.90000000
   O     39.35000000    28.41000000    -8.71000000
   C     36.33000000    28.20000000   -10.52000000
   C     37.42000000    27.87000000   -11.53000000
   C     36.87000000    27.65000000   -12.94000000
   C     38.01000000    27.45000000   -13.94000000
   N     38.56000000    28.77000000   -14.28000000
   H     35.07000000    28.48000000    -8.39000000
   H     37.20000000    26.97000000    -9.04000000
   H     35.94000000    29.20000000   -10.70000000
   H     35.60000000    27.41000000   -10.73000000
   H     37.92000000    26.97000000   -11.17000000
   H     38.29000000    28.52000000   -11.48000000
   H     36.23000000    28.47000000   -13.24000000
   H     36.35000000    26.70000000   -12.95000000
   H     37.55000000    27.04000000   -14.84000000
   H     38.72000000    26.69000000   -13.61000000
   H     37.90000000    29.39000000   -14.73000000
   H     38.89000000    29.30000000   -13.49000000
   H     39.32000000    28.62000000   -14.93000000
   N     37.96000000    30.14000000    -8.90000000
   C     39.00000000    31.15000000    -8.78000000
   C     39.75000000    31.06000000    -7.46000000
   O     40.96000000    31.29000000    -7.50000000
   C     38.46000000    32.57000000    -8.94000000
   C     37.79000000    32.75000000   -10.30000000
   C     36.98000000    34.03000000   -10.45000000
   O     36.18000000    34.42000000    -9.57000000
   O     37.00000000    34.61000000   -11.56000000
   H     37.01000000    30.45000000    -9.02000000
   H     39.80000000    30.96000000    -9.49000000
   H     39.26000000    33.29000000    -8.76000000
   H     37.64000000    32.77000000    -8.24000000
   H     37.08000000    31.93000000   -10.41000000
   H     38.53000000    32.66000000   -11.09000000
   N     39.12000000    30.80000000    -6.31000000
   C     39.87000000    30.74000000    -5.07000000
   H     40.76600000    31.35500000    -5.15800000
   H     39.25300000    31.11300000    -4.25300000
   H     40.15700000    29.70800000    -4.86800000
   H     38.12000000    30.78000000    -6.25000000
  Ca     34.93000000    36.28000000   -11.01100000
   O     33.64000000    34.05000000   -11.62100000
   H     33.55000000    33.10000000   -11.50100000
   H     33.76000000    34.16000000   -12.56100000
   O     32.75000000    35.73000000    -9.18100000
   H     31.81000000    35.55000000    -9.23100000
   H     32.84000000    36.35000000    -8.46100000

Ca 1.00



