%chk=loop1.holoCaM-CaMKII.run21.water2.chk
%nprocshared=20
%mem=10GB
%nosave
#b3lyp/svp scf=(tight,noincore,xqc) Test 
#IOP(5/87=12) Density=Current Pop=(MK,readradii) iop(6/33=2) iop(6/42=6)

loop1.holoCaM-CaMKII.run21.water2 

   0  1 
   C     89.12000000    52.63000000    14.16000000
   C     90.16000000    51.96000000    13.28000000
   O     90.12000000    50.74000000    13.17000000
   H     88.19400000    52.05600000    14.12900000
   H     89.48500000    52.67400000    15.18600000
   H     88.93300000    53.64100000    13.79700000
   N     91.15000000    52.66000000    12.72000000
   C     92.27000000    51.98000000    12.10000000
   C     93.06000000    51.29000000    13.19000000
   O     93.39000000    51.92000000    14.20000000
   C     93.15000000    53.06000000    11.47000000
   C     94.45000000    52.47000000    10.93000000
   O     95.49000000    53.16000000    11.06000000
   O     94.48000000    51.33000000    10.41000000
   H     91.20000000    53.64000000    12.98000000
   H     91.95000000    51.27000000    11.34000000
   H     93.35000000    53.90000000    12.13000000
   H     92.58000000    53.44000000    10.63000000
   N     93.37000000    50.00000000    13.01000000
   C     93.80000000    49.11000000    14.06000000
   C     95.15000000    48.47000000    13.79000000
   O     95.75000000    47.97000000    14.74000000
   C     92.66000000    48.16000000    14.45000000
   C     92.81000000    47.59000000    15.86000000
   C     92.72000000    48.66000000    16.95000000
   C     91.61000000    49.66000000    16.67000000
   N     91.19000000    50.39000000    17.88000000
   H     93.13000000    49.58000000    12.12000000
   H     93.83000000    49.71000000    14.97000000
   H     92.72000000    47.33000000    13.75000000
   H     91.68000000    48.62000000    14.30000000
   H     93.72000000    46.98000000    15.91000000
   H     91.98000000    46.90000000    16.00000000
   H     93.65000000    49.16000000    17.23000000
   H     92.43000000    48.13000000    17.85000000
   H     90.81000000    49.08000000    16.21000000
   H     91.98000000    50.38000000    15.94000000
   H     90.71000000    49.78000000    18.53000000
   H     91.93000000    50.76000000    18.45000000
   H     90.56000000    51.15000000    17.65000000
   N     95.73000000    48.62000000    12.59000000
   C     97.01000000    48.12000000    12.13000000
   C     97.85000000    49.26000000    11.58000000
   O     98.87000000    48.99000000    10.94000000
   C     96.71000000    46.89000000    11.28000000
   C     95.63000000    47.09000000    10.22000000
   O     95.31000000    46.09000000     9.55000000
   O     95.27000000    48.26000000     9.95000000
   H     95.08000000    48.90000000    11.87000000
   H     97.62000000    47.71000000    12.94000000
   H     96.32000000    46.11000000    11.93000000
   H     97.62000000    46.62000000    10.74000000
   N     97.53000000    50.53000000    11.82000000
   C     98.46000000    51.64000000    11.77000000
   C     98.73000000    52.20000000    10.38000000
   O     99.58000000    53.08000000    10.31000000
   H     96.60000000    50.75000000    12.14000000
   H     99.34000000    51.38000000    12.35000000
   H     97.95000000    52.42000000    12.34000000
   N     98.12000000    51.77000000     9.27000000
   C     98.43000000    52.18000000     7.92000000
   C     97.98000000    53.59000000     7.55000000
   O     98.45000000    54.19000000     6.59000000
   C     97.93000000    51.22000000     6.85000000
   C     96.51000000    50.79000000     7.21000000
   O     96.28000000    49.60000000     7.49000000
   O     95.57000000    51.62000000     7.28000000
   H     97.23000000    51.32000000     9.45000000
   H     99.51000000    52.21000000     7.85000000
   H     98.50000000    50.30000000     6.70000000
   H     97.90000000    51.68000000     5.86000000
   N     97.05000000    54.08000000     8.37000000
   C     96.39000000    55.36000000     8.20000000
   C     95.13000000    55.28000000     7.35000000
   O     94.71000000    56.40000000     7.07000000
   H     96.95000000    53.60000000     9.25000000
   H     97.04000000    56.00000000     7.62000000
   H     96.25000000    55.87000000     9.15000000
   N     94.42000000    54.18000000     7.10000000
   C     93.06000000    54.12000000     6.60000000
   C     92.20000000    53.18000000     7.43000000
   O     92.64000000    52.37000000     8.24000000
   C     93.10000000    53.50000000     5.21000000
   C     93.76000000    54.34000000     4.12000000
   O     93.77000000    52.27000000     5.17000000
   H     94.84000000    53.35000000     7.49000000
   H     92.64000000    55.12000000     6.61000000
   H     92.09000000    53.39000000     4.81000000
   H     94.64000000    52.41000000     5.56000000
   H     93.64000000    53.98000000     3.10000000
   H     93.43000000    55.38000000     4.07000000
   H     94.83000000    54.35000000     4.35000000
   N     90.87000000    53.28000000     7.33000000
   C     89.92000000    52.46000000     8.06000000
   C     89.10000000    51.66000000     7.06000000
   O     88.56000000    52.14000000     6.06000000
   C     88.95000000    53.34000000     8.83000000
   C     89.67000000    54.38000000     9.69000000
   C     88.09000000    52.40000000     9.66000000
   C     88.66000000    55.40000000    10.20000000
   H     90.42000000    53.96000000     6.74000000
   H     90.40000000    51.75000000     8.73000000
   H     88.28000000    53.77000000     8.09000000
   H     90.46000000    54.88000000     9.14000000
   H     90.16000000    53.92000000    10.55000000
   H     87.81000000    51.43000000     9.23000000
   H     88.54000000    52.34000000    10.65000000
   H     87.11000000    52.85000000     9.84000000
   H     88.23000000    55.89000000     9.33000000
   H     87.85000000    54.97000000    10.78000000
   H     89.07000000    56.10000000    10.94000000
   N     89.09000000    50.35000000     7.27000000
   C     88.38000000    49.36000000     6.48000000
   C     86.98000000    49.10000000     7.03000000
   O     86.77000000    49.25000000     8.23000000
   C     89.13000000    48.06000000     6.19000000
   C     90.38000000    48.23000000     5.34000000
   O     89.62000000    47.55000000     7.41000000
   H     89.56000000    49.92000000     8.06000000
   H     88.37000000    49.79000000     5.48000000
   H     88.49000000    47.28000000     5.77000000
   H     90.08000000    48.30000000     7.78000000
   H     91.11000000    47.48000000     5.64000000
   H     90.11000000    48.08000000     4.30000000
   H     90.88000000    49.20000000     5.41000000
   N     86.11000000    48.59000000     6.15000000
   C     84.84000000    48.04000000     6.55000000
   C     84.92000000    46.93000000     7.59000000
   O     83.98000000    46.80000000     8.37000000
   C     84.20000000    47.54000000     5.26000000
   C     82.75000000    47.11000000     5.44000000
   O     84.19000000    48.59000000     4.31000000
   H     86.47000000    48.35000000     5.23000000
   H     84.18000000    48.84000000     6.90000000
   H     84.75000000    46.69000000     4.88000000
   H     84.26000000    48.19000000     3.44000000
   H     82.21000000    47.78000000     6.12000000
   H     82.25000000    47.20000000     4.48000000
   H     82.52000000    46.12000000     5.84000000
   N     85.97000000    46.12000000     7.49000000
   C     86.22000000    45.08000000     8.46000000
   C     86.50000000    45.67000000     9.84000000
   O     85.94000000    45.28000000    10.86000000
   C     87.46000000    44.28000000     8.07000000
   C     87.67000000    43.03000000     8.93000000
   C     86.48000000    42.12000000     9.21000000
   C     85.96000000    41.53000000     7.90000000
   N     84.77000000    40.71000000     8.15000000
   H     86.69000000    46.35000000     6.81000000
   H     85.30000000    44.51000000     8.55000000
   H     88.37000000    44.88000000     8.06000000
   H     87.43000000    43.96000000     7.03000000
   H     88.00000000    43.36000000     9.91000000
   H     88.40000000    42.39000000     8.42000000
   H     85.69000000    42.74000000     9.64000000
   H     86.85000000    41.27000000     9.78000000
   H     86.69000000    40.86000000     7.44000000
   H     85.69000000    42.34000000     7.23000000
   H     84.84000000    40.37000000     9.10000000
   H     83.96000000    41.31000000     8.10000000
   H     84.75000000    39.92000000     7.52000000
   N     87.38000000    46.68000000     9.85000000
   C     87.76000000    47.49000000    10.99000000
   C     86.56000000    48.20000000    11.61000000
   O     86.34000000    48.23000000    12.82000000
   C     88.88000000    48.49000000    10.72000000
   C     90.25000000    47.83000000    10.58000000
   C     91.33000000    48.73000000    10.01000000
   O     91.25000000    49.23000000     8.86000000
   O     92.35000000    49.01000000    10.67000000
   H     87.81000000    46.94000000     8.98000000
   H     88.05000000    46.87000000    11.84000000
   H     88.90000000    49.23000000    11.51000000
   H     88.73000000    48.94000000     9.73000000
   H     90.19000000    47.00000000     9.88000000
   H     90.62000000    47.47000000    11.54000000
   N     85.68000000    48.75000000    10.77000000
   C     84.49000000    49.38000000    11.29000000
   H     83.66700000    48.66500000    11.28000000
   H     84.67100000    49.71000000    12.31300000
   H     84.23200000    50.23900000    10.67000000
   H     85.85000000    48.79000000     9.78000000
  Ca     93.94000000    49.80000000     8.53000000
   O     93.71000000    47.26000000     7.80000000
   H     93.54000000    46.70000000     7.04000000
   H     94.42000000    46.82000000     8.27000000
   O     93.43000000    49.79000000     6.01000000
   H     93.56000000    50.69000000     5.70000000
   H     93.30000000    49.28000000     5.21000000

Ca 1.00



