%chk=loop4.apoCaM-CA-Ng.Init31.run33.water5.chk
%nprocshared=20
%mem=10GB
%nosave
#b3lyp/svp scf=(tight,noincore,xqc) Test 
#IOP(5/87=12) Density=Current Pop=(MK,readradii) iop(6/33=2) iop(6/42=6)

loop4.apoCaM-CA-Ng.Init31.run33.water5 

   -3  1 
   C    101.57000000    36.35000000    82.88000000
   C    102.64000000    36.11000000    83.93000000
   O    103.20000000    37.04000000    84.51000000
   H    100.72200000    36.86000000    83.33700000
   H    101.97700000    36.96900000    82.08000000
   H    101.24200000    35.39500000    82.47000000
   N    103.09000000    34.90000000    84.26000000
   C    102.57000000    33.58000000    83.98000000
   C    101.53000000    33.10000000    84.99000000
   O    100.88000000    32.10000000    84.73000000
   C    103.79000000    32.70000000    83.73000000
   C    104.80000000    33.37000000    82.80000000
   O    105.96000000    33.59000000    83.21000000
   O    104.41000000    33.64000000    81.65000000
   H    103.80000000    34.97000000    84.97000000
   H    102.09000000    33.57000000    83.00000000
   H    103.67000000    31.70000000    83.33000000
   H    104.26000000    32.55000000    84.71000000
   N    101.59000000    33.62000000    86.22000000
   C    100.57000000    33.31000000    87.21000000
   C    100.79000000    31.93000000    87.83000000
   O     99.87000000    31.13000000    87.87000000
   C    100.29000000    34.38000000    88.26000000
   C     99.30000000    34.06000000    89.38000000
   C    101.59000000    34.79000000    88.94000000
   C     97.85000000    33.81000000    88.97000000
   H    102.21000000    34.41000000    86.32000000
   H     99.65000000    33.26000000    86.63000000
   H     99.83000000    35.23000000    87.77000000
   H     99.31000000    34.79000000    90.20000000
   H     99.66000000    33.14000000    89.84000000
   H    101.43000000    35.64000000    89.60000000
   H    102.02000000    33.88000000    89.37000000
   H    102.28000000    35.05000000    88.14000000
   H     97.39000000    34.76000000    88.73000000
   H     97.84000000    33.13000000    88.11000000
   H     97.48000000    33.30000000    89.86000000
   N    102.05000000    31.64000000    88.17000000
   C    102.27000000    30.33000000    88.74000000
   C    103.31000000    29.54000000    87.95000000
   O    103.23000000    28.32000000    87.86000000
   C    102.77000000    30.44000000    90.18000000
   C    102.92000000    29.07000000    90.81000000
   O    103.99000000    28.78000000    91.40000000
   O    102.00000000    28.22000000    90.84000000
   H    102.83000000    32.24000000    87.94000000
   H    101.41000000    29.68000000    88.88000000
   H    102.04000000    31.01000000    90.77000000
   H    103.70000000    31.01000000    90.25000000
   N    104.28000000    30.16000000    87.28000000
   C    105.50000000    29.59000000    86.74000000
   C    106.80000000    30.00000000    87.41000000
   O    106.88000000    30.93000000    88.21000000
   H    104.30000000    31.16000000    87.44000000
   H    105.57000000    29.88000000    85.69000000
   H    105.42000000    28.50000000    86.69000000
   N    107.82000000    29.16000000    87.22000000
   C    109.21000000    29.42000000    87.54000000
   C    109.87000000    28.32000000    88.37000000
   O    109.85000000    27.13000000    88.05000000
   C    109.93000000    29.66000000    86.22000000
   C    111.38000000    30.11000000    86.25000000
   O    111.66000000    31.27000000    85.88000000
   O    112.30000000    29.34000000    86.59000000
   H    107.53000000    28.25000000    86.89000000
   H    109.29000000    30.38000000    88.05000000
   H    109.43000000    30.49000000    85.70000000
   H    109.82000000    28.80000000    85.57000000
   N    110.62000000    28.61000000    89.44000000
   C    110.80000000    29.93000000    89.99000000
   C    109.73000000    30.29000000    91.01000000
   O    108.61000000    29.81000000    90.85000000
   H    110.95000000    27.85000000    90.01000000
   H    110.99000000    30.79000000    89.34000000
   H    111.77000000    29.91000000    90.48000000
   N    109.91000000    31.03000000    92.10000000
   C    110.92000000    31.96000000    92.57000000
   C    111.12000000    33.10000000    91.58000000
   O    111.00000000    32.95000000    90.37000000
   C    112.17000000    31.25000000    93.08000000
   C    113.21000000    32.13000000    93.77000000
   C    112.65000000    32.86000000    94.98000000
   N    113.06000000    32.45000000    96.18000000
   O    111.86000000    33.79000000    94.85000000
   H    109.10000000    31.02000000    92.71000000
   H    110.41000000    32.38000000    93.44000000
   H    112.66000000    30.83000000    92.20000000
   H    111.92000000    30.50000000    93.83000000
   H    113.49000000    32.85000000    92.99000000
   H    114.17000000    31.66000000    94.00000000
   H    113.82000000    31.77000000    96.23000000
   H    112.82000000    33.00000000    96.99000000
   N    111.26000000    34.29000000    92.17000000
   C    111.45000000    35.57000000    91.52000000
   C    110.45000000    36.55000000    92.10000000
   O    110.31000000    36.60000000    93.32000000
   C    112.87000000    36.15000000    91.52000000
   C    113.90000000    35.44000000    90.64000000
   C    113.42000000    36.24000000    92.94000000
   H    111.42000000    34.27000000    93.17000000
   H    111.21000000    35.46000000    90.46000000
   H    112.86000000    37.20000000    91.22000000
   H    114.06000000    34.41000000    90.95000000
   H    113.63000000    35.45000000    89.59000000
   H    114.84000000    35.97000000    90.76000000
   H    114.42000000    36.67000000    92.86000000
   H    112.65000000    36.85000000    93.42000000
   H    113.42000000    35.19000000    93.24000000
   N    109.88000000    37.34000000    91.18000000
   C    108.87000000    38.33000000    91.50000000
   C    108.84000000    39.62000000    90.70000000
   O    108.26000000    40.60000000    91.18000000
   C    107.52000000    37.63000000    91.34000000
   C    107.35000000    36.33000000    92.13000000
   N    106.71000000    36.33000000    93.30000000
   O    107.81000000    35.24000000    91.79000000
   H    110.07000000    37.02000000    90.24000000
   H    108.92000000    38.70000000    92.52000000
   H    107.49000000    37.31000000    90.30000000
   H    106.69000000    38.29000000    91.57000000
   H    106.50000000    37.16000000    93.84000000
   H    106.60000000    35.43000000    93.74000000
   N    109.54000000    39.76000000    89.58000000
   C    109.62000000    41.00000000    88.83000000
   C    109.76000000    40.66000000    87.35000000
   O    110.39000000    39.65000000    87.05000000
   C    110.79000000    41.86000000    89.29000000
   C    110.77000000    43.24000000    88.66000000
   C    111.70000000    43.54000000    87.65000000
   C    109.87000000    44.25000000    89.01000000
   C    111.71000000    44.73000000    86.92000000
   C    109.76000000    45.39000000    88.21000000
   C    110.68000000    45.66000000    87.17000000
   O    110.47000000    46.73000000    86.36000000
   H    110.12000000    39.02000000    89.20000000
   H    108.71000000    41.58000000    88.95000000
   H    111.68000000    41.34000000    88.94000000
   H    110.97000000    41.91000000    90.36000000
   H    112.43000000    42.82000000    87.32000000
   H    109.21000000    43.97000000    89.82000000
   H    112.48000000    44.95000000    86.19000000
   H    108.84000000    45.94000000    88.34000000
   H    111.17000000    46.87000000    85.71000000
   N    109.33000000    41.52000000    86.42000000
   C    109.56000000    41.43000000    85.00000000
   C    108.26000000    41.49000000    84.20000000
   O    107.51000000    42.46000000    84.25000000
   C    110.51000000    42.58000000    84.67000000
   C    110.93000000    42.53000000    83.21000000
   C    112.15000000    43.40000000    82.92000000
   O    112.03000000    44.62000000    82.71000000
   O    113.28000000    42.86000000    82.98000000
   H    108.87000000    42.38000000    86.69000000
   H    109.96000000    40.44000000    84.78000000
   H    111.40000000    42.43000000    85.29000000
   H    109.97000000    43.52000000    84.74000000
   H    110.17000000    42.75000000    82.46000000
   H    111.24000000    41.52000000    82.94000000
   N    107.91000000    40.40000000    83.51000000
   C    106.65000000    40.24000000    82.81000000
   C    105.64000000    39.67000000    83.79000000
   O    104.44000000    39.82000000    83.56000000
   C    107.00000000    39.44000000    81.55000000
   C    105.77000000    39.18000000    80.69000000
   C    106.08000000    38.50000000    79.37000000
   O    105.68000000    39.11000000    78.35000000
   O    106.56000000    37.35000000    79.38000000
   H    108.38000000    39.53000000    83.73000000
   H    106.31000000    41.25000000    82.58000000
   H    107.43000000    38.53000000    81.97000000
   H    107.77000000    39.92000000    80.95000000
   H    105.21000000    40.11000000    80.53000000
   H    105.05000000    38.48000000    81.10000000
   N    106.03000000    39.06000000    84.91000000
   C    105.25000000    38.74000000    86.08000000
   H    104.26400000    38.39000000    85.77400000
   H    105.75200000    37.95800000    86.64900000
   H    105.14300000    39.63000000    86.70000000
   H    107.03000000    38.90000000    84.96000000
  Ca    106.22500000    35.21000000    80.77000000
   O    108.51500000    36.24000000    82.12000000
   H    108.56500000    36.79000000    82.90000000
   H    109.40500000    36.23000000    81.77000000
   O    108.23500000    33.24000000    80.88000000
   H    108.71500000    32.68000000    80.27000000
   H    108.90500000    33.59000000    81.46000000
   O    108.33500000    35.60000000    79.02000000
   H    109.21500000    35.59000000    78.65000000
   H    107.98500000    36.46000000    78.78000000
   O    105.30500000    36.85000000    82.72000000
   H    104.48500000    37.20000000    82.36000000
   H    105.11500000    36.71000000    83.65000000
   O    105.82500000    33.44000000    78.81000000
   H    105.25500000    33.88000000    78.19000000
   H    106.34500000    32.84000000    78.28000000

Ca 1.00



