%chk=loop2.apoCaM-CA-Ng.Init293.run35.water8.chk
%nprocshared=20
%mem=10GB
%nosave
#b3lyp/svp scf=(tight,noincore,xqc) Test 
#IOP(5/87=12) Density=Current Pop=(MK,readradii) iop(6/33=2) iop(6/42=6)

loop2.apoCaM-CA-Ng.Init293.run35.water8 

   -2  1 
   C     47.14000000    65.75000000   110.78000000
   C     47.48000000    65.48000000   112.23000000
   O     48.08000000    66.34000000   112.88000000
   H     46.32300000    66.46900000   110.72700000
   H     48.01400000    66.15600000   110.27100000
   H     46.83700000    64.82000000   110.29800000
   N     47.28000000    64.27000000   112.76000000
   C     47.48000000    63.88000000   114.15000000
   C     48.95000000    64.04000000   114.50000000
   O     49.37000000    64.64000000   115.48000000
   C     46.80000000    62.55000000   114.43000000
   C     47.16000000    61.91000000   115.77000000
   O     47.99000000    60.98000000   115.78000000
   O     46.53000000    62.35000000   116.75000000
   H     46.87000000    63.59000000   112.14000000
   H     46.94000000    64.50000000   114.86000000
   H     46.96000000    61.86000000   113.60000000
   H     45.76000000    62.82000000   114.59000000
   N     49.80000000    63.45000000   113.66000000
   C     51.24000000    63.36000000   113.86000000
   C     51.86000000    64.73000000   114.08000000
   O     52.72000000    64.82000000   114.95000000
   C     51.42000000    62.28000000   114.93000000
   H     49.31000000    62.94000000   112.93000000
   H     51.59000000    62.90000000   112.94000000
   H     52.43000000    61.88000000   114.85000000
   H     51.16000000    62.68000000   115.90000000
   H     50.81000000    61.39000000   114.76000000
   N     51.52000000    65.72000000   113.25000000
   C     51.99000000    67.08000000   113.46000000
   C     51.66000000    67.72000000   114.80000000
   O     52.54000000    68.35000000   115.39000000
   C     53.42000000    67.18000000   112.95000000
   C     53.59000000    66.77000000   111.50000000
   O     53.01000000    67.48000000   110.65000000
   O     54.31000000    65.84000000   111.08000000
   H     50.94000000    65.55000000   112.44000000
   H     51.30000000    67.58000000   112.78000000
   H     54.16000000    66.62000000   113.53000000
   H     53.79000000    68.19000000   113.09000000
   N     50.52000000    67.35000000   115.39000000
   C     50.21000000    67.53000000   116.80000000
   C     49.99000000    68.95000000   117.28000000
   O     49.40000000    69.72000000   116.52000000
   H     49.95000000    66.67000000   114.92000000
   H     51.03000000    67.07000000   117.36000000
   H     49.28000000    67.03000000   117.08000000
   N     50.44000000    69.26000000   118.50000000
   C     50.49000000    70.60000000   119.05000000
   C     49.12000000    71.28000000   119.06000000
   O     49.02000000    72.50000000   118.95000000
   C     51.52000000    71.49000000   118.36000000
   C     52.87000000    70.84000000   118.62000000
   N     53.49000000    70.01000000   117.77000000
   O     53.44000000    71.11000000   119.67000000
   H     50.88000000    68.50000000   118.98000000
   H     50.71000000    70.56000000   120.11000000
   H     51.57000000    72.54000000   118.66000000
   H     51.38000000    71.49000000   117.28000000
   H     53.08000000    69.76000000   116.88000000
   H     54.42000000    69.72000000   118.03000000
   N     48.03000000    70.54000000   119.25000000
   C     46.66000000    71.02000000   119.28000000
   C     45.82000000    70.81000000   118.03000000
   O     44.61000000    70.99000000   118.08000000
   H     48.25000000    69.60000000   119.55000000
   H     46.66000000    72.05000000   119.63000000
   H     46.18000000    70.49000000   120.10000000
   N     46.46000000    70.35000000   116.95000000
   C     45.80000000    69.93000000   115.73000000
   C     46.04000000    71.01000000   114.68000000
   O     47.10000000    71.63000000   114.55000000
   C     46.43000000    68.67000000   115.13000000
   C     46.56000000    67.57000000   116.18000000
   O     45.67000000    68.13000000   114.07000000
   H     47.47000000    70.27000000   117.01000000
   H     44.76000000    69.71000000   115.95000000
   H     47.36000000    69.05000000   114.72000000
   H     46.02000000    68.57000000   113.29000000
   H     47.02000000    66.64000000   115.84000000
   H     47.27000000    68.01000000   116.88000000
   H     45.69000000    67.45000000   116.81000000
   N     45.10000000    71.23000000   113.76000000
   C     45.40000000    71.91000000   112.51000000
   C     46.38000000    71.09000000   111.69000000
   O     46.71000000    69.97000000   112.06000000
   C     44.15000000    72.22000000   111.69000000
   C     43.43000000    70.90000000   111.41000000
   C     43.18000000    73.18000000   112.37000000
   C     42.11000000    71.09000000   110.67000000
   H     44.32000000    70.59000000   113.83000000
   H     45.81000000    72.89000000   112.76000000
   H     44.43000000    72.59000000   110.70000000
   H     43.10000000    70.45000000   112.34000000
   H     44.10000000    70.21000000   110.89000000
   H     42.54000000    73.63000000   111.61000000
   H     42.56000000    72.66000000   113.10000000
   H     43.78000000    73.94000000   112.88000000
   H     41.63000000    70.12000000   110.48000000
   H     41.40000000    71.62000000   111.31000000
   H     42.39000000    71.55000000   109.73000000
   N     46.90000000    71.70000000   110.62000000
   C     47.89000000    71.16000000   109.71000000
   C     49.28000000    71.70000000   110.06000000
   O     50.01000000    72.26000000   109.25000000
   C     47.50000000    71.51000000   108.28000000
   C     48.23000000    70.75000000   107.18000000
   O     48.36000000    71.30000000   106.06000000
   O     48.67000000    69.58000000   107.26000000
   H     46.58000000    72.61000000   110.33000000
   H     48.05000000    70.09000000   109.77000000
   H     47.57000000    72.59000000   108.14000000
   H     46.45000000    71.25000000   108.14000000
   N     49.62000000    71.66000000   111.35000000
   C     50.82000000    72.03000000   112.06000000
   C     51.35000000    73.43000000   111.81000000
   O     52.57000000    73.49000000   111.69000000
   C     50.62000000    71.87000000   113.57000000
   C     51.87000000    72.17000000   114.36000000
   C     51.91000000    73.25000000   115.25000000
   C     53.02000000    71.39000000   114.20000000
   C     53.05000000    73.59000000   115.98000000
   C     54.11000000    71.63000000   115.04000000
   C     54.17000000    72.75000000   115.88000000
   H     48.96000000    71.10000000   111.86000000
   H     51.54000000    71.34000000   111.60000000
   H     50.26000000    70.86000000   113.76000000
   H     49.89000000    72.56000000   114.00000000
   H     51.07000000    73.92000000   115.41000000
   H     52.98000000    70.51000000   113.58000000
   H     52.96000000    74.41000000   116.67000000
   H     54.93000000    70.93000000   114.95000000
   H     55.07000000    72.84000000   116.46000000
   N     50.61000000    74.54000000   111.81000000
   C     49.20000000    74.65000000   112.16000000
   C     48.41000000    74.88000000   110.89000000
   O     47.18000000    74.82000000   110.96000000
   C     49.12000000    75.90000000   113.04000000
   C     50.17000000    76.76000000   112.35000000
   C     51.21000000    75.85000000   111.68000000
   H     48.76000000    73.87000000   112.78000000
   H     48.13000000    76.35000000   112.96000000
   H     49.29000000    75.74000000   114.11000000
   H     49.70000000    77.38000000   111.59000000
   H     50.65000000    77.34000000   113.13000000
   H     51.44000000    76.17000000   110.67000000
   H     52.13000000    75.82000000   112.26000000
   N     49.01000000    75.31000000   109.77000000
   C     48.47000000    76.27000000   108.83000000
   C     47.37000000    75.63000000   108.00000000
   O     47.65000000    75.06000000   106.95000000
   C     49.64000000    76.79000000   108.00000000
   C     49.23000000    77.90000000   107.04000000
   C     48.91000000    79.17000000   107.82000000
   O     47.74000000    79.35000000   108.24000000
   O     49.73000000    80.11000000   107.83000000
   H     49.99000000    75.07000000   109.68000000
   H     48.09000000    77.13000000   109.37000000
   H     50.12000000    75.96000000   107.47000000
   H     50.41000000    77.13000000   108.69000000
   H     48.48000000    77.64000000   106.30000000
   H     50.18000000    78.08000000   106.53000000
   N     46.11000000    75.81000000   108.40000000
   C     44.89000000    75.32000000   107.78000000
   H     44.12600000    76.09600000   107.82000000
   H     45.08900000    75.06100000   106.74000000
   H     44.53900000    74.43700000   108.31500000
   H     45.97000000    76.38000000   109.22000000
  Ca     50.80000000    68.10000000   106.89700000
   O     48.91000000    66.89000000   105.40700000
   H     48.21000000    66.49000000   105.92700000
   H     48.56000000    66.93000000   104.52700000
   O     51.78000000    70.49000000   107.97700000
   H     51.25000000    70.75000000   108.73700000
   H     51.73000000    71.24000000   107.38700000
   O     49.96000000    69.75000000   104.68700000
   H     49.30000000    70.25000000   105.16700000
   H     50.61000000    70.41000000   104.42700000
   O     51.92000000    66.19000000   105.23700000
   H     52.87000000    66.12000000   105.26700000
   H     51.70000000    66.07000000   104.30700000
   O     52.88000000    68.95000000   105.15700000
   H     53.78000000    68.76000000   105.41700000
   H     52.93000000    69.15000000   104.22700000
   O     53.22000000    67.48000000   107.96700000
   H     53.23000000    67.27000000   108.89700000
   H     54.07000000    67.19000000   107.64700000
   O     50.62000000    68.15000000   109.61700000
   H     51.37000000    67.74000000   110.03700000
   H     49.93000000    68.12000000   110.27700000
   O     49.93000000    65.75000000   108.04700000
   H     49.80000000    65.42000000   108.94700000
   H     49.22000000    65.35000000   107.54700000

Ca 1.00



