%chk=loop4.apoCaM-CA-Ng.Init31.run55.water4.chk
%nprocshared=20
%mem=10GB
%nosave
#b3lyp/svp scf=(tight,noincore,xqc) Test 
#IOP(5/87=12) Density=Current Pop=(MK,readradii) iop(6/33=2) iop(6/42=6)

loop4.apoCaM-CA-Ng.Init31.run55.water4 

   -3  1 
   C     92.69000000    49.52000000     8.25000000
   C     94.00000000    49.66000000     9.01000000
   O     94.29000000    50.80000000     9.35000000
   H     91.95600000    50.21400000     8.66100000
   H     92.85400000    49.74700000     7.19700000
   H     92.31900000    48.50000000     8.34900000
   N     94.86000000    48.65000000     9.22000000
   C     94.58000000    47.23000000     9.25000000
   C     94.32000000    46.63000000    10.63000000
   O     93.95000000    45.46000000    10.67000000
   C     95.74000000    46.55000000     8.52000000
   C     96.04000000    47.10000000     7.13000000
   O     95.25000000    47.84000000     6.50000000
   O     97.12000000    46.80000000     6.59000000
   H     95.73000000    48.93000000     9.63000000
   H     93.62000000    47.07000000     8.77000000
   H     95.59000000    45.48000000     8.37000000
   H     96.64000000    46.78000000     9.09000000
   N     94.56000000    47.32000000    11.74000000
   C     94.16000000    47.01000000    13.10000000
   C     94.78000000    45.71000000    13.59000000
   O     94.11000000    44.96000000    14.30000000
   C     94.46000000    48.15000000    14.07000000
   C     93.98000000    49.49000000    13.53000000
   C     93.86000000    47.84000000    15.44000000
   C     92.48000000    49.58000000    13.29000000
   H     94.68000000    48.29000000    11.47000000
   H     93.09000000    46.81000000    13.10000000
   H     95.53000000    48.35000000    14.15000000
   H     94.38000000    49.67000000    12.53000000
   H     94.19000000    50.32000000    14.21000000
   H     93.97000000    48.72000000    16.08000000
   H     92.78000000    47.65000000    15.42000000
   H     94.50000000    47.11000000    15.92000000
   H     92.16000000    49.13000000    12.35000000
   H     91.84000000    49.11000000    14.04000000
   H     92.10000000    50.60000000    13.23000000
   N     96.05000000    45.47000000    13.24000000
   C     96.70000000    44.22000000    13.55000000
   C     97.34000000    43.59000000    12.32000000
   O     97.23000000    42.38000000    12.14000000
   C     97.71000000    44.58000000    14.63000000
   C     98.47000000    43.31000000    14.99000000
   O     99.70000000    43.51000000    15.07000000
   O     97.83000000    42.34000000    15.45000000
   H     96.50000000    46.14000000    12.64000000
   H     96.00000000    43.48000000    13.95000000
   H     97.23000000    44.89000000    15.56000000
   H     98.37000000    45.36000000    14.24000000
   N     97.79000000    44.44000000    11.39000000
   C     98.31000000    44.14000000    10.08000000
   C     99.79000000    43.80000000    10.06000000
   O    100.30000000    43.13000000    10.96000000
   H     97.81000000    45.42000000    11.65000000
   H     98.10000000    45.02000000     9.47000000
   H     97.76000000    43.31000000     9.63000000
   N    100.41000000    44.24000000     8.97000000
   C    101.82000000    44.10000000     8.66000000
   C    102.20000000    42.63000000     8.72000000
   O    101.33000000    41.80000000     8.46000000
   C    102.22000000    44.73000000     7.33000000
   C    101.41000000    44.35000000     6.10000000
   O    101.74000000    43.39000000     5.37000000
   O    100.35000000    44.98000000     5.89000000
   H     99.90000000    44.80000000     8.30000000
   H    102.38000000    44.62000000     9.44000000
   H    103.30000000    44.69000000     7.14000000
   H    101.99000000    45.78000000     7.49000000
   N    103.42000000    42.23000000     9.07000000
   C    104.53000000    43.00000000     9.59000000
   C    104.68000000    43.11000000    11.10000000
   O    103.96000000    42.38000000    11.79000000
   H    103.60000000    41.24000000     9.02000000
   H    104.51000000    44.01000000     9.19000000
   H    105.44000000    42.60000000     9.15000000
   N    105.45000000    44.02000000    11.69000000
   C    106.16000000    45.16000000    11.16000000
   C    105.28000000    46.34000000    10.77000000
   O    104.07000000    46.17000000    10.61000000
   C    107.26000000    44.82000000    10.16000000
   C    108.19000000    43.74000000    10.72000000
   C    109.17000000    44.20000000    11.78000000
   N    110.13000000    43.37000000    12.18000000
   O    109.05000000    45.27000000    12.38000000
   H    105.25000000    43.98000000    12.68000000
   H    106.76000000    45.47000000    12.02000000
   H    107.88000000    45.71000000    10.09000000
   H    106.93000000    44.64000000     9.14000000
   H    108.82000000    43.33000000     9.93000000
   H    107.71000000    42.85000000    11.14000000
   H    110.19000000    42.49000000    11.69000000
   H    110.74000000    43.69000000    12.92000000
   N    105.84000000    47.54000000    10.61000000
   C    105.07000000    48.70000000    10.22000000
   C    105.45000000    49.98000000    10.96000000
   O    106.58000000    50.37000000    11.23000000
   C    105.11000000    48.94000000     8.71000000
   C    104.30000000    48.00000000     7.82000000
   C    106.55000000    49.05000000     8.22000000
   H    106.77000000    47.68000000    10.99000000
   H    104.06000000    48.51000000    10.59000000
   H    104.67000000    49.91000000     8.50000000
   H    103.26000000    48.26000000     7.99000000
   H    104.48000000    48.25000000     6.77000000
   H    104.50000000    46.97000000     8.11000000
   H    106.65000000    49.13000000     7.14000000
   H    107.01000000    49.85000000     8.80000000
   H    107.03000000    48.10000000     8.45000000
   N    104.44000000    50.75000000    11.36000000
   C    104.67000000    52.11000000    11.79000000
   C    105.16000000    53.09000000    10.73000000
   O    105.52000000    54.23000000    11.04000000
   C    103.35000000    52.54000000    12.42000000
   C    103.60000000    53.80000000    13.23000000
   N    103.18000000    55.02000000    12.87000000
   O    104.28000000    53.69000000    14.25000000
   H    103.50000000    50.36000000    11.39000000
   H    105.50000000    52.17000000    12.49000000
   H    102.92000000    51.74000000    13.04000000
   H    102.69000000    52.81000000    11.60000000
   H    102.89000000    55.21000000    11.93000000
   H    103.23000000    55.80000000    13.51000000
   N    105.03000000    52.77000000     9.44000000
   C    105.46000000    53.56000000     8.30000000
   C    104.55000000    53.20000000     7.13000000
   O    104.00000000    52.11000000     7.12000000
   C    106.93000000    53.23000000     8.07000000
   C    107.67000000    54.07000000     7.05000000
   C    108.41000000    55.22000000     7.36000000
   C    107.69000000    53.64000000     5.72000000
   C    109.13000000    55.99000000     6.43000000
   C    108.44000000    54.31000000     4.75000000
   C    109.21000000    55.42000000     5.14000000
   O    109.92000000    56.08000000     4.18000000
   H    104.74000000    51.83000000     9.21000000
   H    105.34000000    54.61000000     8.56000000
   H    107.02000000    52.19000000     7.78000000
   H    107.44000000    53.34000000     9.03000000
   H    108.50000000    55.43000000     8.41000000
   H    107.02000000    52.81000000     5.50000000
   H    109.78000000    56.82000000     6.65000000
   H    108.60000000    53.99000000     3.73000000
   H    110.51000000    56.78000000     4.46000000
   N    104.56000000    54.01000000     6.07000000
   C    103.90000000    53.73000000     4.81000000
   C    102.46000000    54.18000000     4.95000000
   O    102.26000000    55.37000000     5.17000000
   C    104.61000000    54.49000000     3.68000000
   C    104.21000000    54.09000000     2.27000000
   C    104.88000000    54.94000000     1.20000000
   O    105.71000000    55.85000000     1.41000000
   O    104.52000000    54.65000000     0.04000000
   H    105.07000000    54.88000000     6.11000000
   H    104.00000000    52.70000000     4.46000000
   H    105.68000000    54.31000000     3.84000000
   H    104.49000000    55.55000000     3.88000000
   H    103.13000000    54.09000000     2.11000000
   H    104.49000000    53.07000000     1.99000000
   N    101.49000000    53.28000000     4.74000000
   C    100.05000000    53.43000000     4.83000000
   C     99.55000000    53.11000000     6.23000000
   O     99.72000000    51.94000000     6.59000000
   C     99.37000000    52.53000000     3.79000000
   C     97.87000000    52.51000000     4.08000000
   C     97.14000000    51.68000000     3.05000000
   O     96.50000000    52.21000000     2.11000000
   O     97.18000000    50.43000000     3.11000000
   H    101.80000000    52.33000000     4.65000000
   H     99.74000000    54.45000000     4.63000000
   H     99.67000000    51.49000000     3.85000000
   H     99.60000000    52.82000000     2.77000000
   H     97.53000000    53.54000000     4.00000000
   H     97.57000000    52.16000000     5.07000000
   N     99.15000000    54.11000000     7.02000000
   C     98.98000000    54.04000000     8.45000000
   H     97.92400000    53.90500000     8.68400000
   H     99.54900000    53.19800000     8.84300000
   H     99.33700000    54.96400000     8.90500000
   H     98.92000000    55.00000000     6.60000000
  Ca     96.72000000    48.24000000     4.32000000
   O     97.45000000    47.66000000     1.75000000
   H     97.80000000    48.42000000     1.28000000
   H     97.59000000    46.93000000     1.15000000
   O     98.49000000    49.33000000     6.07000000
   H     99.20000000    48.73000000     6.30000000
   H     98.77000000    50.17000000     6.42000000
   O     96.12000000    45.74000000     3.94000000
   H     95.25000000    45.35000000     3.84000000
   H     96.71000000    45.06000000     3.63000000
   O     99.27000000    47.10000000     4.29000000
   H     99.96000000    47.75000000     4.15000000
   H     99.70000000    46.40000000     4.78000000

Ca 1.00



