%chk=loop2.apoCaM-CA-Ng.Init31.run67.water7.chk
%nprocshared=20
%mem=10GB
%nosave
#b3lyp/svp scf=(tight,noincore,xqc) Test 
#IOP(5/87=12) Density=Current Pop=(MK,readradii) iop(6/33=2) iop(6/42=6)

loop2.apoCaM-CA-Ng.Init31.run67.water7 

   -2  1 
   C     87.26000000    73.86000000     5.97000000
   C     85.93000000    73.14000000     6.13000000
   O     85.59000000    73.11000000     7.31000000
   H     88.01600000    73.15400000     5.62700000
   H     87.15400000    74.66100000     5.23900000
   H     87.56400000    74.28000000     6.92900000
   N     85.16000000    72.65000000     5.17000000
   C     85.32000000    72.54000000     3.73000000
   C     85.10000000    71.15000000     3.13000000
   O     84.71000000    70.22000000     3.84000000
   C     84.44000000    73.59000000     3.05000000
   C     83.02000000    73.86000000     3.53000000
   O     82.34000000    72.92000000     3.99000000
   O     82.57000000    75.03000000     3.54000000
   H     84.31000000    72.29000000     5.59000000
   H     86.35000000    72.83000000     3.55000000
   H     84.30000000    73.38000000     1.99000000
   H     85.05000000    74.49000000     3.09000000
   N     85.39000000    71.00000000     1.84000000
   C     85.02000000    69.82000000     1.08000000
   C     83.52000000    69.59000000     1.19000000
   O     82.73000000    70.43000000     0.76000000
   C     85.99000000    68.66000000     1.26000000
   H     85.94000000    71.75000000     1.44000000
   H     85.18000000    70.15000000     0.05000000
   H     85.73000000    68.20000000     2.21000000
   H     85.97000000    67.98000000     0.41000000
   H     86.96000000    69.11000000     1.46000000
   N     83.09000000    68.48000000     1.79000000
   C     81.72000000    68.06000000     1.61000000
   C     81.15000000    67.54000000     2.92000000
   O     81.94000000    67.14000000     3.77000000
   C     81.86000000    67.05000000     0.48000000
   C     82.62000000    65.76000000     0.71000000
   O     83.26000000    65.64000000     1.78000000
   O     82.70000000    64.95000000    -0.23000000
   H     83.79000000    67.78000000     2.00000000
   H     81.02000000    68.78000000     1.17000000
   H     82.25000000    67.55000000    -0.41000000
   H     80.85000000    66.71000000     0.23000000
   N     79.82000000    67.56000000     3.10000000
   C     79.20000000    67.15000000     4.35000000
   C     77.98000000    66.29000000     4.08000000
   O     77.65000000    65.95000000     2.95000000
   H     79.24000000    67.93000000     2.36000000
   H     78.81000000    68.03000000     4.85000000
   H     79.89000000    66.60000000     4.99000000
   N     77.39000000    65.79000000     5.17000000
   C     76.23000000    64.92000000     5.20000000
   C     75.21000000    65.25000000     6.28000000
   O     74.01000000    65.28000000     6.02000000
   C     76.80000000    63.51000000     5.31000000
   C     77.43000000    62.91000000     4.06000000
   N     76.68000000    62.76000000     2.96000000
   O     78.64000000    62.73000000     3.97000000
   H     77.87000000    66.05000000     6.02000000
   H     75.64000000    64.98000000     4.30000000
   H     75.95000000    62.88000000     5.56000000
   H     77.56000000    63.50000000     6.10000000
   H     75.78000000    63.22000000     3.01000000
   H     76.96000000    62.29000000     2.11000000
   N     75.78000000    65.42000000     7.48000000
   C     74.99000000    65.75000000     8.65000000
   C     74.24000000    64.61000000     9.31000000
   O     74.12000000    63.49000000     8.81000000
   H     76.78000000    65.40000000     7.62000000
   H     74.22000000    66.47000000     8.37000000
   H     75.64000000    66.24000000     9.37000000
   N     73.69000000    64.75000000    10.52000000
   C     73.77000000    65.80000000    11.51000000
   C     74.98000000    65.84000000    12.44000000
   O     75.26000000    66.95000000    12.88000000
   C     72.49000000    65.99000000    12.32000000
   C     71.40000000    66.50000000    11.39000000
   O     72.17000000    64.79000000    12.99000000
   H     73.38000000    63.85000000    10.84000000
   H     73.89000000    66.70000000    10.91000000
   H     72.63000000    66.77000000    13.07000000
   H     72.75000000    64.66000000    13.74000000
   H     70.43000000    66.21000000    11.81000000
   H     71.35000000    67.59000000    11.44000000
   H     71.35000000    66.13000000    10.37000000
   N     75.84000000    64.83000000    12.53000000
   C     76.95000000    64.67000000    13.46000000
   C     76.62000000    64.97000000    14.91000000
   O     76.55000000    66.11000000    15.37000000
   C     78.19000000    65.44000000    13.03000000
   C     78.66000000    65.13000000    11.61000000
   C     79.45000000    65.30000000    13.88000000
   C     79.02000000    63.68000000    11.31000000
   H     75.55000000    63.99000000    12.04000000
   H     77.14000000    63.60000000    13.39000000
   H     77.94000000    66.48000000    13.22000000
   H     79.55000000    65.74000000    11.40000000
   H     77.95000000    65.48000000    10.87000000
   H     79.27000000    65.56000000    14.92000000
   H     79.74000000    64.25000000    13.86000000
   H     80.32000000    65.91000000    13.63000000
   H     79.76000000    63.21000000    11.95000000
   H     78.07000000    63.15000000    11.39000000
   H     79.28000000    63.71000000    10.25000000
   N     76.46000000    63.97000000    15.78000000
   C     76.71000000    62.57000000    15.50000000
   C     78.15000000    62.10000000    15.63000000
   O     78.80000000    61.74000000    14.65000000
   C     75.76000000    61.84000000    16.45000000
   C     75.82000000    62.02000000    17.96000000
   O     75.33000000    61.14000000    18.70000000
   O     76.15000000    63.12000000    18.45000000
   H     75.80000000    64.10000000    16.53000000
   H     76.28000000    62.24000000    14.56000000
   H     75.92000000    60.79000000    16.25000000
   H     74.73000000    62.06000000    16.15000000
   N     78.73000000    62.34000000    16.81000000
   C     79.99000000    61.71000000    17.14000000
   C     79.71000000    60.36000000    17.80000000
   O     78.64000000    60.11000000    18.34000000
   C     80.78000000    62.72000000    17.96000000
   C     80.18000000    63.12000000    19.29000000
   C     79.16000000    64.07000000    19.32000000
   C     80.74000000    62.69000000    20.50000000
   C     78.79000000    64.65000000    20.54000000
   C     80.31000000    63.26000000    21.71000000
   C     79.34000000    64.27000000    21.77000000
   H     78.17000000    62.79000000    17.52000000
   H     80.52000000    61.58000000    16.20000000
   H     80.82000000    63.60000000    17.32000000
   H     81.79000000    62.34000000    18.09000000
   H     78.82000000    64.46000000    18.37000000
   H     81.52000000    61.95000000    20.54000000
   H     78.14000000    65.51000000    20.47000000
   H     80.66000000    62.74000000    22.59000000
   H     79.07000000    64.67000000    22.73000000
   N     80.61000000    59.38000000    17.88000000
   C     81.90000000    59.37000000    17.21000000
   C     81.85000000    59.26000000    15.69000000
   O     80.81000000    59.29000000    15.04000000
   C     82.72000000    58.30000000    17.92000000
   C     82.00000000    58.03000000    19.23000000
   C     80.55000000    58.32000000    18.87000000
   H     82.46000000    60.28000000    17.40000000
   H     82.62000000    57.36000000    17.37000000
   H     83.76000000    58.51000000    18.14000000
   H     82.15000000    57.00000000    19.58000000
   H     82.31000000    58.82000000    19.92000000
   H     80.09000000    57.38000000    18.56000000
   H     80.04000000    58.64000000    19.78000000
   N     83.02000000    59.18000000    15.06000000
   C     83.18000000    59.14000000    13.62000000
   C     84.27000000    60.05000000    13.07000000
   O     84.91000000    59.66000000    12.09000000
   C     83.34000000    57.71000000    13.10000000
   C     82.22000000    56.76000000    13.50000000
   C     80.82000000    56.98000000    12.93000000
   O     79.82000000    56.53000000    13.52000000
   O     80.66000000    57.52000000    11.81000000
   H     83.84000000    59.24000000    15.65000000
   H     82.27000000    59.57000000    13.21000000
   H     84.28000000    57.27000000    13.42000000
   H     83.40000000    57.83000000    12.02000000
   H     82.25000000    56.65000000    14.58000000
   H     82.60000000    55.83000000    13.07000000
   N     84.63000000    61.20000000    13.65000000
   C     84.04000000    61.96000000    14.73000000
   H     83.03100000    61.59400000    14.92200000
   H     84.64500000    61.84500000    15.62900000
   H     83.99700000    63.01300000    14.45300000
   H     85.41000000    61.61000000    13.15000000
  Ca     83.66000000    65.20000000     4.33000000
   O     81.16000000    64.40000000     3.83000000
   H     80.50000000    64.14000000     4.48000000
   H     80.77000000    64.16000000     2.99000000
   O     84.63000000    67.56000000     5.18000000
   H     85.08000000    67.61000000     6.03000000
   H     84.84000000    68.39000000     4.75000000
   O     83.69000000    62.99000000     6.00000000
   H     83.02000000    62.33000000     6.17000000
   H     84.47000000    62.68000000     6.47000000
   O     82.57000000    65.88000000     6.66000000
   H     82.74000000    66.46000000     7.40000000
   H     81.75000000    65.44000000     6.89000000
   O     84.23000000    62.98000000     2.96000000
   H     84.61000000    62.90000000     2.09000000
   H     83.52000000    62.33000000     2.98000000
   O     86.20000000    65.51000000     3.64000000
   H     86.81000000    65.95000000     4.24000000
   H     86.67000000    65.46000000     2.81000000
   O     85.57000000    65.13000000     6.33000000
   H     86.40000000    64.66000000     6.39000000
   H     85.69000000    65.89000000     6.91000000

Ca 1.00



