%chk=loop3.holoCaM-CaMKII.run3.water2.chk
%nprocshared=20
%mem=10GB
%nosave
#b3lyp/svp scf=(tight,noincore,xqc) Test 
#IOP(5/87=12) Density=Current Pop=(MK,readradii) iop(6/33=2) iop(6/42=6)

loop3.holoCaM-CaMKII.run3.water2 

   0  1 
   C     63.41000000    47.96000000    42.73000000
   C     63.14000000    47.23000000    44.03000000
   O     63.95000000    46.37000000    44.36000000
   H     64.44900000    47.80700000    42.43700000
   H     62.75200000    47.57300000    41.95200000
   H     63.22500000    49.02600000    42.86600000
   N     62.13000000    47.56000000    44.84000000
   C     61.75000000    46.80000000    46.01000000
   C     61.11000000    45.48000000    45.61000000
   O     59.94000000    45.34000000    45.24000000
   C     60.89000000    47.67000000    46.92000000
   C     60.45000000    46.97000000    48.19000000
   O     59.47000000    47.53000000    48.74000000
   O     61.04000000    45.94000000    48.58000000
   H     61.49000000    48.27000000    44.50000000
   H     62.65000000    46.66000000    46.61000000
   H     60.00000000    48.01000000    46.38000000
   H     61.50000000    48.52000000    47.24000000
   N     61.81000000    44.35000000    45.73000000
   C     61.43000000    43.06000000    45.17000000
   C     60.76000000    42.04000000    46.08000000
   O     59.93000000    41.26000000    45.63000000
   C     62.64000000    42.48000000    44.43000000
   C     62.91000000    43.24000000    43.14000000
   C     64.12000000    42.64000000    42.43000000
   C     64.31000000    43.28000000    41.06000000
   N     63.12000000    43.13000000    40.21000000
   H     62.78000000    44.55000000    45.91000000
   H     60.68000000    43.21000000    44.40000000
   H     62.38000000    41.48000000    44.09000000
   H     63.49000000    42.57000000    45.11000000
   H     63.16000000    44.25000000    43.49000000
   H     62.07000000    43.26000000    42.46000000
   H     63.96000000    41.57000000    42.37000000
   H     64.98000000    42.73000000    43.10000000
   H     65.17000000    42.78000000    40.60000000
   H     64.40000000    44.36000000    41.20000000
   H     63.30000000    43.51000000    39.29000000
   H     62.84000000    42.16000000    40.13000000
   H     62.25000000    43.59000000    40.46000000
   N     60.93000000    42.22000000    47.39000000
   C     60.01000000    41.63000000    48.35000000
   C     58.90000000    42.56000000    48.80000000
   O     58.05000000    42.06000000    49.54000000
   C     60.76000000    41.02000000    49.53000000
   C     61.56000000    42.00000000    50.37000000
   O     62.14000000    41.57000000    51.39000000
   O     61.71000000    43.22000000    50.13000000
   H     61.62000000    42.86000000    47.77000000
   H     59.41000000    40.80000000    47.98000000
   H     61.37000000    40.17000000    49.21000000
   H     60.04000000    40.48000000    50.16000000
   N     58.87000000    43.85000000    48.47000000
   C     57.70000000    44.67000000    48.75000000
   C     57.56000000    45.21000000    50.17000000
   O     56.44000000    45.30000000    50.67000000
   H     59.66000000    44.32000000    48.06000000
   H     56.79000000    44.12000000    48.52000000
   H     57.70000000    45.51000000    48.05000000
   N     58.69000000    45.62000000    50.75000000
   C     58.77000000    46.08000000    52.12000000
   C     58.85000000    47.59000000    52.33000000
   O     58.82000000    48.05000000    53.47000000
   C     59.91000000    45.36000000    52.82000000
   C     61.29000000    46.01000000    52.76000000
   N     61.97000000    46.18000000    53.89000000
   O     61.80000000    46.32000000    51.69000000
   H     59.51000000    45.65000000    50.16000000
   H     57.84000000    45.85000000    52.64000000
   H     60.02000000    44.32000000    52.50000000
   H     59.64000000    45.21000000    53.86000000
   H     61.51000000    46.03000000    54.77000000
   H     62.98000000    46.28000000    53.86000000
   N     58.87000000    48.46000000    51.32000000
   C     59.02000000    49.90000000    51.40000000
   C     60.45000000    50.39000000    51.17000000
   O     60.69000000    51.59000000    51.23000000
   H     58.93000000    48.11000000    50.38000000
   H     58.74000000    50.10000000    52.43000000
   H     58.32000000    50.46000000    50.77000000
   N     61.45000000    49.52000000    51.03000000
   C     62.85000000    49.82000000    50.83000000
   C     63.56000000    48.97000000    49.79000000
   O     63.16000000    47.83000000    49.55000000
   C     63.67000000    49.70000000    52.11000000
   C     63.09000000    50.44000000    53.29000000
   C     63.60000000    51.71000000    53.56000000
   C     62.16000000    49.90000000    54.19000000
   C     63.22000000    52.39000000    54.73000000
   C     61.70000000    50.57000000    55.33000000
   C     62.28000000    51.82000000    55.61000000
   O     62.00000000    52.55000000    56.73000000
   H     61.19000000    48.54000000    51.05000000
   H     62.93000000    50.84000000    50.44000000
   H     64.68000000    50.06000000    51.92000000
   H     63.77000000    48.63000000    52.31000000
   H     64.29000000    52.21000000    52.89000000
   H     61.81000000    48.90000000    53.96000000
   H     63.67000000    53.36000000    54.90000000
   H     61.02000000    50.05000000    55.99000000
   H     61.24000000    52.17000000    57.17000000
   N     64.71000000    49.46000000    49.33000000
   C     65.55000000    48.81000000    48.34000000
   C     66.93000000    48.69000000    48.96000000
   O     67.64000000    49.60000000    49.38000000
   C     65.65000000    49.61000000    47.05000000
   C     64.49000000    50.44000000    46.51000000
   C     66.20000000    48.71000000    45.94000000
   C     64.82000000    51.56000000    45.53000000
   H     64.87000000    50.44000000    49.48000000
   H     65.22000000    47.77000000    48.21000000
   H     66.43000000    50.36000000    47.21000000
   H     63.91000000    50.86000000    47.33000000
   H     63.87000000    49.69000000    46.02000000
   H     66.53000000    49.21000000    45.03000000
   H     66.97000000    48.02000000    46.29000000
   H     65.38000000    48.04000000    45.68000000
   H     63.89000000    52.08000000    45.28000000
   H     65.36000000    52.36000000    46.03000000
   H     65.42000000    51.23000000    44.68000000
   N     67.41000000    47.44000000    48.92000000
   C     68.72000000    46.97000000    49.32000000
   C     69.65000000    46.54000000    48.19000000
   O     69.23000000    46.38000000    47.05000000
   C     68.55000000    45.73000000    50.20000000
   O     67.83000000    46.02000000    51.38000000
   H     66.73000000    46.76000000    48.60000000
   H     69.15000000    47.75000000    49.94000000
   H     69.56000000    45.43000000    50.47000000
   H     67.97000000    45.05000000    49.58000000
   H     67.99000000    45.33000000    52.02000000
   N     70.96000000    46.49000000    48.39000000
   C     71.93000000    46.24000000    47.34000000
   C     71.85000000    45.06000000    46.39000000
   O     71.94000000    45.22000000    45.17000000
   C     73.33000000    46.23000000    47.96000000
   H     71.21000000    46.78000000    49.33000000
   H     71.85000000    47.04000000    46.61000000
   H     73.47000000    47.12000000    48.57000000
   H     73.30000000    45.41000000    48.67000000
   H     74.10000000    46.12000000    47.19000000
   N     71.47000000    43.91000000    46.96000000
   C     71.11000000    42.77000000    46.15000000
   C     69.89000000    42.93000000    45.25000000
   O     69.88000000    42.24000000    44.23000000
   C     71.07000000    41.59000000    47.12000000
   H     71.32000000    43.92000000    47.96000000
   H     71.87000000    42.63000000    45.38000000
   H     70.33000000    41.91000000    47.86000000
   H     70.74000000    40.68000000    46.64000000
   H     71.99000000    41.49000000    47.70000000
   N     68.93000000    43.82000000    45.51000000
   C     67.76000000    43.99000000    44.68000000
   C     68.15000000    44.87000000    43.50000000
   O     67.86000000    44.63000000    42.33000000
   C     66.56000000    44.58000000    45.40000000
   C     66.28000000    43.85000000    46.70000000
   C     65.12000000    44.45000000    47.49000000
   O     65.21000000    45.52000000    48.13000000
   O     64.09000000    43.77000000    47.70000000
   H     68.95000000    44.39000000    46.35000000
   H     67.45000000    43.07000000    44.16000000
   H     65.70000000    44.37000000    44.76000000
   H     66.62000000    45.64000000    45.65000000
   H     67.16000000    43.77000000    47.34000000
   H     65.98000000    42.85000000    46.36000000
   N     68.96000000    45.92000000    43.66000000
   C     69.50000000    46.81000000    42.66000000
   H     70.50900000    46.49200000    42.39800000
   H     68.87000000    46.78400000    41.77100000
   H     69.53000000    47.82500000    43.05500000
   H     69.31000000    46.02000000    44.61000000
  Ca     63.34000000    45.15000000    49.76000000
   O     65.52000000    43.77000000    50.32000000
   H     65.43000000    43.01000000    50.90000000
   H     66.42000000    43.72000000    49.99000000
   O     65.12000000    46.27000000    51.58000000
   H     66.05000000    46.12000000    51.38000000
   H     65.10000000    46.37000000    52.53000000

Ca 1.00



