%chk=loop2.apoCaM-CA-Ng.Init31.run23.water4.chk
%nprocshared=20
%mem=10GB
%nosave
#b3lyp/svp scf=(tight,noincore,xqc) Test 
#IOP(5/87=12) Density=Current Pop=(MK,readradii) iop(6/33=2) iop(6/42=6)

loop2.apoCaM-CA-Ng.Init31.run23.water4 

   -2  1 
   C     93.66000000    45.85000000   -23.38000000
   C     92.15000000    45.79000000   -23.20000000
   O     91.72000000    45.48000000   -22.10000000
   H     94.14700000    45.43800000   -22.49700000
   H     93.94500000    45.26800000   -24.25700000
   H     93.97000000    46.88600000   -23.51400000
   N     91.34000000    45.86000000   -24.26000000
   C     91.63000000    46.36000000   -25.59000000
   C     91.05000000    45.58000000   -26.76000000
   O     89.94000000    45.07000000   -26.72000000
   C     90.96000000    47.73000000   -25.70000000
   C     89.53000000    47.88000000   -25.19000000
   O     89.28000000    48.96000000   -24.60000000
   O     88.60000000    47.09000000   -25.43000000
   H     90.37000000    45.66000000   -24.08000000
   H     92.70000000    46.54000000   -25.72000000
   H     91.09000000    48.17000000   -26.69000000
   H     91.58000000    48.37000000   -25.08000000
   N     91.85000000    45.43000000   -27.82000000
   C     91.51000000    44.78000000   -29.07000000
   C     90.33000000    45.38000000   -29.82000000
   O     90.50000000    46.35000000   -30.57000000
   C     91.64000000    43.26000000   -29.05000000
   H     92.83000000    45.62000000   -27.67000000
   H     92.34000000    45.02000000   -29.74000000
   H     92.61000000    43.00000000   -28.63000000
   H     90.85000000    42.80000000   -28.45000000
   H     91.69000000    42.90000000   -30.08000000
   N     89.20000000    44.69000000   -29.71000000
   C     87.94000000    45.19000000   -30.23000000
   C     87.41000000    46.31000000   -29.34000000
   O     87.15000000    46.19000000   -28.15000000
   C     86.94000000    44.06000000   -30.41000000
   C     86.41000000    43.19000000   -29.27000000
   O     87.05000000    43.22000000   -28.20000000
   O     85.31000000    42.60000000   -29.37000000
   H     89.13000000    43.92000000   -29.06000000
   H     88.15000000    45.59000000   -31.22000000
   H     87.50000000    43.44000000   -31.10000000
   H     86.11000000    44.52000000   -30.95000000
   N     87.02000000    47.47000000   -29.88000000
   C     86.59000000    48.63000000   -29.13000000
   C     85.08000000    48.51000000   -28.92000000
   O     84.34000000    48.58000000   -29.90000000
   H     87.16000000    47.52000000   -30.88000000
   H     86.73000000    49.50000000   -29.77000000
   H     87.02000000    48.78000000   -28.14000000
   N     84.65000000    48.48000000   -27.66000000
   C     83.32000000    48.07000000   -27.27000000
   C     82.65000000    49.15000000   -26.42000000
   O     81.44000000    49.20000000   -26.21000000
   C     83.56000000    46.87000000   -26.35000000
   C     84.03000000    45.59000000   -27.03000000
   N     83.36000000    45.23000000   -28.13000000
   O     85.00000000    44.94000000   -26.64000000
   H     85.36000000    48.38000000   -26.95000000
   H     82.67000000    47.86000000   -28.12000000
   H     82.57000000    46.58000000   -26.01000000
   H     84.25000000    47.07000000   -25.53000000
   H     82.41000000    45.53000000   -28.28000000
   H     83.73000000    44.45000000   -28.66000000
   N     83.50000000    50.04000000   -25.89000000
   C     83.10000000    51.00000000   -24.88000000
   C     82.71000000    50.36000000   -23.55000000
   O     82.56000000    49.14000000   -23.48000000
   H     84.49000000    49.98000000   -26.06000000
   H     82.30000000    51.63000000   -25.24000000
   H     84.01000000    51.59000000   -24.71000000
   N     82.49000000    51.12000000   -22.48000000
   C     82.55000000    52.57000000   -22.43000000
   C     83.30000000    53.14000000   -21.24000000
   O     83.71000000    54.30000000   -21.17000000
   C     81.16000000    53.20000000   -22.47000000
   C     80.31000000    53.07000000   -23.73000000
   O     80.44000000    52.66000000   -21.38000000
   H     82.24000000    50.68000000   -21.61000000
   H     83.10000000    52.91000000   -23.30000000
   H     81.30000000    54.26000000   -22.31000000
   H     80.22000000    51.73000000   -21.43000000
   H     79.36000000    53.54000000   -23.51000000
   H     80.67000000    53.60000000   -24.61000000
   H     79.94000000    52.05000000   -23.77000000
   N     83.81000000    52.26000000   -20.36000000
   C     84.78000000    52.48000000   -19.31000000
   C     84.21000000    53.51000000   -18.34000000
   O     84.63000000    54.67000000   -18.33000000
   C     86.17000000    52.68000000   -19.89000000
   C     86.58000000    51.73000000   -21.01000000
   C     87.18000000    52.64000000   -18.75000000
   C     87.84000000    52.26000000   -21.68000000
   H     83.65000000    51.26000000   -20.40000000
   H     84.85000000    51.56000000   -18.74000000
   H     86.28000000    53.71000000   -20.23000000
   H     85.84000000    51.70000000   -21.81000000
   H     86.71000000    50.70000000   -20.67000000
   H     88.15000000    53.07000000   -19.00000000
   H     86.85000000    53.01000000   -17.78000000
   H     87.44000000    51.61000000   -18.48000000
   H     88.72000000    51.87000000   -21.17000000
   H     87.97000000    51.84000000   -22.68000000
   H     87.76000000    53.35000000   -21.73000000
   N     83.33000000    53.11000000   -17.42000000
   C     82.77000000    51.80000000   -17.14000000
   C     83.64000000    51.02000000   -16.16000000
   O     83.96000000    49.85000000   -16.38000000
   C     81.33000000    51.86000000   -16.66000000
   C     80.97000000    52.74000000   -15.47000000
   O     79.96000000    52.44000000   -14.80000000
   O     81.64000000    53.77000000   -15.25000000
   H     83.01000000    53.84000000   -16.80000000
   H     82.84000000    51.22000000   -18.06000000
   H     80.98000000    50.83000000   -16.56000000
   H     80.79000000    52.26000000   -17.51000000
   N     84.06000000    51.67000000   -15.08000000
   C     84.77000000    51.04000000   -13.98000000
   C     83.91000000    50.11000000   -13.13000000
   O     82.71000000    50.35000000   -13.01000000
   C     85.31000000    52.17000000   -13.11000000
   C     84.51000000    53.21000000   -12.36000000
   C     83.80000000    54.22000000   -13.02000000
   C     84.40000000    53.20000000   -10.97000000
   C     83.05000000    55.18000000   -12.33000000
   C     83.63000000    54.13000000   -10.27000000
   C     82.91000000    55.13000000   -10.93000000
   H     83.60000000    52.53000000   -14.81000000
   H     85.68000000    50.56000000   -14.34000000
   H     86.06000000    52.79000000   -13.60000000
   H     85.92000000    51.79000000   -12.29000000
   H     83.91000000    54.29000000   -14.09000000
   H     84.92000000    52.43000000   -10.42000000
   H     82.53000000    55.91000000   -12.93000000
   H     83.59000000    54.07000000    -9.19000000
   H     82.21000000    55.79000000   -10.43000000
   N     84.50000000    49.16000000   -12.39000000
   C     85.86000000    48.68000000   -12.47000000
   C     86.09000000    47.94000000   -13.78000000
   O     85.21000000    47.79000000   -14.62000000
   C     85.98000000    47.73000000   -11.28000000
   C     84.60000000    47.18000000   -10.93000000
   C     83.76000000    48.34000000   -11.45000000
   H     86.56000000    49.52000000   -12.44000000
   H     86.64000000    46.91000000   -11.56000000
   H     86.27000000    48.30000000   -10.40000000
   H     84.35000000    46.31000000   -11.54000000
   H     84.49000000    47.04000000    -9.86000000
   H     82.83000000    47.97000000   -11.87000000
   H     83.54000000    48.98000000   -10.59000000
   N     87.32000000    47.46000000   -13.96000000
   C     87.76000000    46.72000000   -15.12000000
   C     89.15000000    47.04000000   -15.63000000
   O     89.86000000    46.18000000   -16.17000000
   C     87.61000000    45.25000000   -14.75000000
   C     88.37000000    44.69000000   -13.55000000
   C     89.88000000    44.88000000   -13.49000000
   O     90.65000000    44.02000000   -13.96000000
   O     90.36000000    45.87000000   -12.90000000
   H     87.93000000    47.72000000   -13.19000000
   H     87.07000000    46.88000000   -15.95000000
   H     87.87000000    44.64000000   -15.61000000
   H     86.55000000    45.00000000   -14.61000000
   H     88.12000000    43.63000000   -13.60000000
   H     87.94000000    45.14000000   -12.65000000
   N     89.77000000    48.20000000   -15.42000000
   C     89.36000000    49.54000000   -15.04000000
   H     88.37800000    49.49900000   -14.56800000
   H     90.08300000    49.95700000   -14.33800000
   H     89.30900000    50.17100000   -15.92800000
   H     90.72000000    48.20000000   -15.75000000
  Ca     87.50000000    44.73000000   -26.00500000
   O     86.12000000    45.97000000   -24.03500000
   H     86.49000000    46.74000000   -23.59500000
   H     85.63000000    45.52000000   -23.34500000
   O     88.83000000    44.44000000   -23.66500000
   H     88.46000000    44.84000000   -22.87500000
   H     89.35000000    43.70000000   -23.33500000
   O     86.16000000    42.85000000   -24.46500000
   H     86.25000000    41.94000000   -24.20500000
   H     85.74000000    43.28000000   -23.71500000
   O     88.98000000    42.43000000   -25.68500000
   H     89.85000000    42.37000000   -26.07500000
   H     88.86000000    41.61000000   -25.20500000

Ca 1.00



