%chk=loop4.apoCaM-CA-Ng.Init293.run20.water3.chk
%nprocshared=20
%mem=10GB
%nosave
#b3lyp/svp scf=(tight,noincore,xqc) Test 
#IOP(5/87=12) Density=Current Pop=(MK,readradii) iop(6/33=2) iop(6/42=6)

loop4.apoCaM-CA-Ng.Init293.run20.water3 

   -3  1 
   C     47.75000000    31.41000000    26.44000000
   C     48.77000000    32.53000000    26.33000000
   O     49.79000000    32.47000000    27.01000000
   H     46.84300000    31.69100000    25.90500000
   H     48.16100000    30.49900000    26.00400000
   H     47.51300000    31.23600000    27.48900000
   N     48.49000000    33.49000000    25.44000000
   C     49.35000000    34.54000000    24.93000000
   C     50.80000000    34.15000000    24.69000000
   O     51.66000000    33.94000000    25.55000000
   C     49.17000000    35.86000000    25.68000000
   C     49.43000000    35.84000000    27.18000000
   O     48.45000000    35.59000000    27.92000000
   O     50.59000000    36.13000000    27.55000000
   H     47.54000000    33.57000000    25.09000000
   H     48.95000000    34.67000000    23.93000000
   H     48.16000000    36.22000000    25.52000000
   H     49.86000000    36.56000000    25.21000000
   N     51.16000000    33.98000000    23.42000000
   C     52.50000000    33.56000000    23.06000000
   C     53.54000000    34.67000000    23.16000000
   O     54.74000000    34.42000000    23.21000000
   C     52.81000000    32.18000000    23.64000000
   C     53.78000000    31.53000000    22.65000000
   C     51.65000000    31.22000000    23.86000000
   C     54.62000000    30.39000000    23.21000000
   H     50.54000000    34.05000000    22.63000000
   H     52.38000000    33.44000000    21.99000000
   H     53.32000000    32.37000000    24.59000000
   H     54.50000000    32.24000000    22.25000000
   H     53.24000000    31.14000000    21.79000000
   H     51.06000000    31.30000000    24.78000000
   H     51.00000000    31.36000000    23.00000000
   H     52.00000000    30.19000000    23.81000000
   H     54.69000000    29.62000000    22.43000000
   H     55.53000000    30.77000000    23.66000000
   H     54.04000000    29.91000000    24.00000000
   N     53.06000000    35.91000000    23.10000000
   C     53.83000000    37.06000000    23.53000000
   C     54.11000000    37.03000000    25.02000000
   O     53.36000000    36.59000000    25.89000000
   C     53.21000000    38.41000000    23.18000000
   C     51.71000000    38.54000000    23.40000000
   O     51.39000000    39.63000000    23.93000000
   O     50.94000000    37.67000000    22.96000000
   H     52.06000000    36.05000000    23.00000000
   H     54.81000000    37.03000000    23.06000000
   H     53.44000000    38.35000000    22.11000000
   H     53.79000000    39.26000000    23.54000000
   N     55.17000000    37.72000000    25.45000000
   C     56.24000000    38.24000000    24.63000000
   C     57.50000000    38.56000000    25.42000000
   O     57.63000000    38.30000000    26.61000000
   H     55.27000000    37.91000000    26.44000000
   H     55.97000000    39.09000000    24.00000000
   H     56.56000000    37.40000000    24.02000000
   N     58.55000000    39.13000000    24.81000000
   C     58.62000000    39.72000000    23.49000000
   C     58.59000000    38.80000000    22.28000000
   O     57.99000000    39.27000000    21.31000000
   C     59.86000000    40.60000000    23.52000000
   C     59.68000000    41.69000000    24.57000000
   O     58.82000000    42.58000000    24.36000000
   O     60.24000000    41.57000000    25.68000000
   H     59.45000000    38.91000000    25.22000000
   H     57.81000000    40.43000000    23.41000000
   H     59.93000000    41.09000000    22.55000000
   H     60.73000000    39.98000000    23.72000000
   N     59.08000000    37.56000000    22.29000000
   C     59.92000000    36.83000000    23.22000000
   C     60.79000000    35.84000000    22.46000000
   O     60.79000000    35.73000000    21.24000000
   H     58.95000000    37.01000000    21.45000000
   H     59.33000000    36.40000000    24.03000000
   H     60.66000000    37.52000000    23.63000000
   N     61.60000000    35.10000000    23.22000000
   C     62.53000000    34.14000000    22.65000000
   C     62.13000000    32.68000000    22.49000000
   O     62.71000000    32.01000000    21.64000000
   C     63.91000000    34.26000000    23.28000000
   C     64.62000000    35.60000000    23.09000000
   C     65.98000000    35.60000000    23.75000000
   N     67.12000000    35.79000000    23.09000000
   O     66.15000000    35.53000000    24.97000000
   H     61.25000000    35.06000000    24.17000000
   H     62.68000000    34.46000000    21.62000000
   H     64.51000000    33.48000000    22.81000000
   H     63.78000000    34.10000000    24.35000000
   H     64.10000000    36.44000000    23.54000000
   H     64.79000000    35.86000000    22.04000000
   H     67.17000000    35.80000000    22.08000000
   H     67.94000000    35.63000000    23.66000000
   N     61.04000000    32.32000000    23.17000000
   C     60.22000000    31.16000000    22.87000000
   C     59.74000000    30.29000000    24.03000000
   O     58.68000000    29.68000000    23.94000000
   C     59.06000000    31.61000000    21.99000000
   C     59.49000000    32.19000000    20.64000000
   C     58.20000000    32.70000000    22.62000000
   H     60.64000000    33.00000000    23.79000000
   H     60.74000000    30.49000000    22.19000000
   H     58.41000000    30.77000000    21.77000000
   H     59.99000000    31.38000000    20.11000000
   H     58.61000000    32.47000000    20.07000000
   H     60.16000000    33.05000000    20.76000000
   H     57.32000000    32.92000000    22.01000000
   H     57.93000000    32.34000000    23.61000000
   H     58.78000000    33.62000000    22.73000000
   N     60.55000000    30.07000000    25.06000000
   C     60.39000000    29.10000000    26.12000000
   C     60.53000000    29.65000000    27.53000000
   O     59.68000000    29.36000000    28.37000000
   C     61.49000000    28.04000000    26.05000000
   C     61.53000000    27.44000000    24.65000000
   N     62.33000000    27.93000000    23.69000000
   O     60.81000000    26.49000000    24.35000000
   H     61.43000000    30.58000000    25.02000000
   H     59.42000000    28.60000000    26.08000000
   H     61.15000000    27.25000000    26.71000000
   H     62.48000000    28.44000000    26.26000000
   H     62.85000000    28.79000000    23.78000000
   H     62.27000000    27.44000000    22.81000000
   N     61.40000000    30.65000000    27.72000000
   C     61.49000000    31.59000000    28.82000000
   C     60.14000000    32.24000000    29.06000000
   O     59.61000000    32.90000000    28.16000000
   C     62.65000000    32.56000000    28.61000000
   C     62.87000000    33.45000000    29.81000000
   C     63.23000000    32.90000000    31.04000000
   C     62.53000000    34.81000000    29.76000000
   C     63.21000000    33.70000000    32.19000000
   C     62.44000000    35.62000000    30.90000000
   C     62.82000000    35.06000000    32.13000000
   O     62.75000000    35.87000000    33.23000000
   H     61.96000000    30.85000000    26.91000000
   H     61.79000000    30.90000000    29.62000000
   H     62.40000000    33.12000000    27.71000000
   H     63.58000000    32.06000000    28.36000000
   H     63.55000000    31.87000000    31.13000000
   H     62.00000000    35.08000000    28.86000000
   H     63.62000000    33.30000000    33.10000000
   H     62.00000000    36.60000000    30.85000000
   H     62.55000000    36.79000000    33.11000000
   N     59.65000000    32.10000000    30.29000000
   C     58.35000000    32.54000000    30.76000000
   C     57.12000000    31.86000000    30.17000000
   O     56.01000000    32.09000000    30.66000000
   C     58.18000000    34.05000000    30.89000000
   C     59.30000000    34.72000000    31.68000000
   C     58.98000000    36.16000000    32.08000000
   O     58.59000000    36.32000000    33.26000000
   O     59.19000000    37.16000000    31.36000000
   H     60.20000000    31.69000000    31.04000000
   H     58.31000000    32.18000000    31.79000000
   H     57.22000000    34.29000000    31.36000000
   H     58.27000000    34.42000000    29.87000000
   H     60.18000000    34.79000000    31.05000000
   H     59.51000000    34.19000000    32.61000000
   N     57.19000000    30.84000000    29.31000000
   C     56.07000000    30.20000000    28.65000000
   C     55.97000000    28.68000000    28.78000000
   O     55.03000000    27.99000000    28.40000000
   C     56.14000000    30.52000000    27.16000000
   C     56.38000000    31.94000000    26.67000000
   C     55.29000000    32.96000000    26.96000000
   O     55.43000000    34.18000000    26.75000000
   O     54.16000000    32.59000000    27.35000000
   H     58.09000000    30.69000000    28.87000000
   H     55.11000000    30.56000000    29.01000000
   H     55.17000000    30.26000000    26.72000000
   H     56.97000000    29.91000000    26.79000000
   H     56.54000000    31.97000000    25.59000000
   H     57.24000000    32.41000000    27.15000000
   N     56.98000000    28.11000000    29.43000000
   C     57.14000000    26.69000000    29.67000000
   H     58.02600000    26.52300000    30.28300000
   H     56.26200000    26.30800000    30.19000000
   H     57.25400000    26.17100000    28.71800000
   H     57.66000000    28.73000000    29.85000000
  Ca     52.82000000    34.72000000    27.72000000
   O     51.03000000    33.23000000    29.42000000
   H     50.89000000    32.42000000    29.92000000
   H     50.32000000    33.24000000    28.78000000
   O     54.42000000    34.45000000    30.07000000
   H     54.91000000    35.27000000    30.03000000
   H     55.06000000    33.80000000    30.33000000
   O     53.68000000    36.96000000    28.78000000
   H     54.50000000    37.43000000    28.60000000
   H     53.23000000    37.51000000    29.43000000

Ca 1.00



