%chk=loop4.apoCaM-CA-Ng.Init293.run33.water4.chk
%nprocshared=20
%mem=10GB
%nosave
#b3lyp/svp scf=(tight,noincore,xqc) Test 
#IOP(5/87=12) Density=Current Pop=(MK,readradii) iop(6/33=2) iop(6/42=6)

loop4.apoCaM-CA-Ng.Init293.run33.water4 

   -3  1 
   C     31.09000000    10.68000000     0.62000000
   C     31.62000000    11.53000000    -0.52000000
   O     32.31000000    10.88000000    -1.32000000
   H     30.07800000    10.35000000     0.38600000
   H     31.73300000     9.81100000     0.75500000
   H     31.07600000    11.26900000     1.53700000
   N     31.20000000    12.78000000    -0.67000000
   C     31.41000000    13.72000000    -1.75000000
   C     31.56000000    13.11000000    -3.13000000
   O     32.64000000    13.06000000    -3.72000000
   C     32.53000000    14.68000000    -1.33000000
   C     33.78000000    14.13000000    -0.66000000
   O     33.79000000    13.94000000     0.58000000
   O     34.81000000    13.72000000    -1.23000000
   H     30.69000000    13.05000000     0.16000000
   H     30.53000000    14.37000000    -1.70000000
   H     32.07000000    15.39000000    -0.64000000
   H     32.84000000    15.22000000    -2.22000000
   N     30.44000000    12.76000000    -3.76000000
   C     30.24000000    12.19000000    -5.07000000
   C     30.95000000    12.85000000    -6.24000000
   O     31.28000000    12.19000000    -7.23000000
   C     30.24000000    10.67000000    -4.99000000
   C     29.23000000     9.94000000    -4.11000000
   C     31.60000000    10.00000000    -4.78000000
   C     28.71000000     8.68000000    -4.81000000
   H     29.65000000    12.95000000    -3.15000000
   H     29.21000000    12.44000000    -5.35000000
   H     29.95000000    10.54000000    -6.03000000
   H     28.34000000    10.55000000    -4.00000000
   H     29.67000000     9.73000000    -3.14000000
   H     32.30000000    10.65000000    -4.26000000
   H     31.60000000     9.06000000    -4.23000000
   H     31.87000000     9.78000000    -5.82000000
   H     29.51000000     8.23000000    -5.39000000
   H     28.25000000     7.96000000    -4.14000000
   H     28.00000000     9.01000000    -5.57000000
   N     31.15000000    14.17000000    -6.22000000
   C     32.02000000    14.93000000    -7.08000000
   C     33.48000000    14.53000000    -6.86000000
   O     33.98000000    14.58000000    -5.74000000
   C     31.97000000    16.43000000    -6.82000000
   C     33.03000000    17.14000000    -7.65000000
   O     34.10000000    17.49000000    -7.11000000
   O     32.86000000    17.37000000    -8.87000000
   H     30.64000000    14.59000000    -5.45000000
   H     31.78000000    14.71000000    -8.12000000
   H     32.13000000    16.60000000    -5.76000000
   H     31.03000000    16.86000000    -7.18000000
   N     34.15000000    14.06000000    -7.91000000
   C     33.71000000    14.08000000    -9.30000000
   C     34.78000000    13.81000000   -10.35000000
   O     35.98000000    13.76000000   -10.09000000
   H     35.08000000    13.73000000    -7.68000000
   H     33.23000000    14.98000000    -9.66000000
   H     32.93000000    13.32000000    -9.36000000
   N     34.38000000    13.67000000   -11.62000000
   C     33.02000000    13.79000000   -12.10000000
   C     32.00000000    12.78000000   -11.59000000
   O     30.86000000    13.06000000   -11.25000000
   C     33.00000000    13.83000000   -13.62000000
   C     31.63000000    13.67000000   -14.25000000
   O     31.37000000    12.58000000   -14.81000000
   O     30.70000000    14.50000000   -14.13000000
   H     35.09000000    13.53000000   -12.33000000
   H     32.67000000    14.77000000   -11.76000000
   H     33.61000000    13.02000000   -14.03000000
   H     33.43000000    14.79000000   -13.93000000
   N     32.41000000    11.51000000   -11.46000000
   C     33.68000000    10.86000000   -11.69000000
   C     33.60000000     9.44000000   -12.26000000
   O     32.52000000     8.87000000   -12.34000000
   H     31.67000000    10.88000000   -11.19000000
   H     34.28000000    10.84000000   -10.78000000
   H     34.20000000    11.41000000   -12.47000000
   N     34.77000000     8.98000000   -12.70000000
   C     35.08000000     7.76000000   -13.42000000
   C     35.98000000     6.86000000   -12.58000000
   O     36.60000000     6.01000000   -13.20000000
   C     35.77000000     8.16000000   -14.71000000
   C     34.91000000     8.83000000   -15.78000000
   C     34.36000000    10.18000000   -15.35000000
   N     33.06000000    10.40000000   -15.52000000
   O     35.12000000    11.10000000   -15.03000000
   H     35.58000000     9.55000000   -12.46000000
   H     34.19000000     7.19000000   -13.69000000
   H     36.08000000     7.21000000   -15.15000000
   H     36.73000000     8.68000000   -14.67000000
   H     34.03000000     8.19000000   -15.84000000
   H     35.41000000     8.87000000   -16.75000000
   H     32.36000000     9.74000000   -15.81000000
   H     32.65000000    11.19000000   -15.03000000
   N     35.96000000     6.81000000   -11.24000000
   C     36.77000000     5.92000000   -10.43000000
   C     37.77000000     6.68000000    -9.57000000
   O     37.37000000     7.77000000    -9.16000000
   C     35.93000000     4.90000000    -9.66000000
   C     36.87000000     3.96000000    -8.92000000
   C     35.09000000     4.08000000   -10.62000000
   H     35.33000000     7.44000000   -10.78000000
   H     37.31000000     5.29000000   -11.14000000
   H     35.27000000     5.40000000    -8.95000000
   H     37.40000000     4.39000000    -8.07000000
   H     36.28000000     3.15000000    -8.49000000
   H     37.58000000     3.50000000    -9.61000000
   H     34.44000000     4.78000000   -11.15000000
   H     35.77000000     3.56000000   -11.30000000
   H     34.41000000     3.36000000   -10.16000000
   N     39.00000000     6.22000000    -9.30000000
   C     39.90000000     6.83000000    -8.34000000
   C     40.52000000     8.11000000    -8.89000000
   O     41.42000000     8.73000000    -8.32000000
   C     41.00000000     5.88000000    -7.88000000
   C     40.43000000     4.60000000    -7.29000000
   N     40.53000000     3.47000000    -7.99000000
   O     39.78000000     4.49000000    -6.25000000
   H     39.31000000     5.34000000    -9.68000000
   H     39.35000000     7.12000000    -7.45000000
   H     41.67000000     6.32000000    -7.15000000
   H     41.67000000     5.66000000    -8.71000000
   H     40.98000000     3.38000000    -8.90000000
   H     40.18000000     2.65000000    -7.52000000
   N     40.22000000     8.54000000   -10.12000000
   C     40.99000000     9.52000000   -10.85000000
   C     40.67000000    10.86000000   -10.20000000
   O     39.50000000    11.22000000   -10.26000000
   C     40.75000000     9.43000000   -12.36000000
   C     40.76000000     8.03000000   -12.92000000
   C     42.00000000     7.50000000   -13.32000000
   C     39.58000000     7.32000000   -13.19000000
   C     42.08000000     6.20000000   -13.82000000
   C     39.67000000     6.05000000   -13.76000000
   C     40.91000000     5.46000000   -14.09000000
   O     40.98000000     4.25000000   -14.71000000
   H     39.60000000     7.99000000   -10.70000000
   H     42.06000000     9.36000000   -10.71000000
   H     41.56000000     9.99000000   -12.82000000
   H     39.86000000     9.95000000   -12.72000000
   H     42.90000000     8.05000000   -13.08000000
   H     38.59000000     7.70000000   -12.96000000
   H     43.07000000     5.88000000   -14.12000000
   H     38.77000000     5.55000000   -14.10000000
   H     40.14000000     3.99000000   -15.09000000
   N     41.75000000    11.50000000    -9.75000000
   C     41.69000000    12.71000000    -8.96000000
   C     41.04000000    12.56000000    -7.59000000
   O     41.36000000    13.36000000    -6.71000000
   C     41.17000000    13.92000000    -9.73000000
   C     41.87000000    14.19000000   -11.06000000
   C     41.67000000    15.61000000   -11.58000000
   O     42.46000000    16.50000000   -11.19000000
   O     40.73000000    15.91000000   -12.34000000
   H     42.61000000    10.97000000    -9.70000000
   H     42.74000000    12.96000000    -8.83000000
   H     41.35000000    14.75000000    -9.05000000
   H     40.10000000    13.73000000    -9.86000000
   H     41.37000000    13.54000000   -11.78000000
   H     42.93000000    13.99000000   -10.95000000
   N     40.18000000    11.56000000    -7.36000000
   C     39.53000000    11.35000000    -6.08000000
   C     40.38000000    10.58000000    -5.07000000
   O     39.87000000    10.58000000    -3.95000000
   C     38.23000000    10.66000000    -6.46000000
   C     37.31000000    11.52000000    -7.33000000
   C     36.52000000    12.44000000    -6.42000000
   O     35.49000000    11.95000000    -5.91000000
   O     36.78000000    13.62000000    -6.09000000
   H     40.06000000    10.99000000    -8.18000000
   H     39.37000000    12.29000000    -5.55000000
   H     37.66000000    10.33000000    -5.59000000
   H     38.47000000     9.86000000    -7.17000000
   H     36.53000000    11.03000000    -7.91000000
   H     37.85000000    12.02000000    -8.13000000
   N     41.52000000    10.02000000    -5.47000000
   C     42.57000000     9.46000000    -4.65000000
   H     43.41600000    10.14700000    -4.62400000
   H     42.19700000     9.30500000    -3.63700000
   H     42.89000000     8.50700000    -5.07000000
   H     41.65000000    10.15000000    -6.47000000
  Ca     35.29000000    13.20000000    -3.72800000
   O     37.49000000    15.34000000    -3.27800000
   H     38.11000000    15.53000000    -3.97800000
   H     37.58000000    16.06000000    -2.66800000
   O     34.76000000    16.16000000    -3.34800000
   H     34.52000000    16.43000000    -2.45800000
   H     34.60000000    16.93000000    -3.88800000
   O     37.86000000    12.30000000    -3.10800000
   H     38.21000000    12.62000000    -2.27800000
   H     38.32000000    11.49000000    -3.27800000
   O     35.36000000    10.47000000    -2.95800000
   H     36.04000000    10.12000000    -2.37800000
   H     34.78000000     9.73000000    -3.09800000

Ca 1.00



