%chk=loop2.apoCaM-CA-Ng.Init295.run8.water2.chk
%nprocshared=20
%mem=10GB
%nosave
#b3lyp/svp scf=(tight,noincore,xqc) Test 
#IOP(5/87=12) Density=Current Pop=(MK,readradii) iop(6/33=2) iop(6/42=6)

loop2.apoCaM-CA-Ng.Init295.run8.water2 

   -2  1 
   C     59.56000000    48.06000000    52.20000000
   C     59.26000000    48.19000000    50.71000000
   O     58.62000000    47.29000000    50.18000000
   H     60.35200000    48.75800000    52.47300000
   H     58.66200000    48.28800000    52.77300000
   H     59.88200000    47.04200000    52.41900000
   N     59.73000000    49.23000000    50.01000000
   C     60.21000000    49.07000000    48.65000000
   C     59.05000000    48.96000000    47.68000000
   O     58.08000000    49.72000000    47.80000000
   C     61.11000000    50.29000000    48.43000000
   C     61.97000000    50.30000000    47.18000000
   O     62.89000000    51.15000000    47.13000000
   O     62.01000000    49.35000000    46.37000000
   H     60.06000000    50.07000000    50.46000000
   H     60.81000000    48.16000000    48.62000000
   H     61.93000000    50.28000000    49.16000000
   H     60.46000000    51.15000000    48.61000000
   N     59.24000000    48.23000000    46.58000000
   C     58.25000000    47.81000000    45.61000000
   C     57.82000000    46.39000000    45.96000000
   O     58.68000000    45.56000000    46.24000000
   C     58.79000000    48.10000000    44.21000000
   H     60.19000000    47.94000000    46.42000000
   H     57.41000000    48.47000000    45.83000000
   H     58.71000000    49.16000000    43.98000000
   H     59.83000000    47.79000000    44.24000000
   H     58.18000000    47.52000000    43.51000000
   N     56.53000000    46.05000000    45.91000000
   C     55.38000000    46.84000000    45.53000000
   C     54.83000000    47.97000000    46.38000000
   O     55.28000000    48.04000000    47.52000000
   C     54.27000000    45.88000000    45.11000000
   C     53.82000000    45.02000000    46.28000000
   O     52.71000000    45.25000000    46.81000000
   O     54.48000000    44.12000000    46.85000000
   H     56.32000000    45.07000000    46.05000000
   H     55.69000000    47.36000000    44.63000000
   H     54.66000000    45.17000000    44.38000000
   H     53.43000000    46.43000000    44.67000000
   N     53.86000000    48.74000000    45.88000000
   C     53.18000000    49.83000000    46.54000000
   C     53.99000000    51.08000000    46.82000000
   O     55.05000000    51.32000000    46.23000000
   H     53.55000000    48.54000000    44.93000000
   H     52.94000000    49.50000000    47.56000000
   H     52.32000000    50.14000000    45.95000000
   N     53.66000000    51.82000000    47.88000000
   C     52.48000000    51.72000000    48.71000000
   C     52.85000000    51.91000000    50.17000000
   O     51.94000000    52.10000000    50.98000000
   C     51.47000000    52.79000000    48.29000000
   C     51.00000000    52.58000000    46.86000000
   N     49.76000000    52.15000000    46.64000000
   O     51.69000000    52.83000000    45.88000000
   H     54.15000000    52.67000000    48.11000000
   H     51.98000000    50.75000000    48.67000000
   H     51.96000000    53.76000000    48.21000000
   H     50.56000000    52.69000000    48.88000000
   H     49.16000000    51.77000000    47.36000000
   H     49.47000000    52.05000000    45.67000000
   N     54.11000000    51.91000000    50.62000000
   C     54.58000000    52.08000000    51.98000000
   C     54.32000000    50.98000000    53.00000000
   O     54.68000000    51.12000000    54.17000000
   H     54.79000000    51.47000000    50.02000000
   H     54.27000000    53.07000000    52.32000000
   H     55.66000000    52.16000000    51.86000000
   N     53.60000000    49.91000000    52.65000000
   C     53.16000000    48.78000000    53.44000000
   C     53.79000000    47.48000000    52.96000000
   O     54.29000000    47.36000000    51.84000000
   C     51.64000000    48.64000000    53.58000000
   C     51.14000000    49.71000000    54.54000000
   O     50.95000000    48.91000000    52.38000000
   H     53.24000000    49.98000000    51.71000000
   H     53.51000000    48.91000000    54.46000000
   H     51.30000000    47.70000000    54.01000000
   H     50.66000000    48.03000000    52.14000000
   H     50.06000000    49.62000000    54.59000000
   H     51.65000000    49.60000000    55.50000000
   H     51.48000000    50.69000000    54.22000000
   N     53.83000000    46.52000000    53.88000000
   C     54.03000000    45.08000000    53.79000000
   C     52.88000000    44.20000000    54.23000000
   O     52.06000000    44.62000000    55.04000000
   C     55.29000000    44.61000000    54.50000000
   C     56.47000000    45.28000000    53.81000000
   C     55.23000000    44.85000000    56.00000000
   C     56.72000000    44.95000000    52.34000000
   H     53.63000000    46.90000000    54.79000000
   H     54.12000000    44.92000000    52.71000000
   H     55.43000000    43.54000000    54.32000000
   H     57.35000000    45.02000000    54.41000000
   H     56.35000000    46.36000000    53.84000000
   H     56.15000000    44.36000000    56.33000000
   H     55.09000000    45.91000000    56.23000000
   H     54.49000000    44.21000000    56.48000000
   H     56.01000000    45.56000000    51.77000000
   H     57.72000000    45.31000000    52.10000000
   H     56.60000000    43.90000000    52.07000000
   N     52.78000000    42.98000000    53.69000000
   C     51.66000000    42.09000000    53.87000000
   C     52.02000000    40.61000000    53.75000000
   O     52.91000000    40.18000000    53.02000000
   C     50.51000000    42.33000000    52.89000000
   C     50.92000000    42.69000000    51.47000000
   O     51.16000000    43.86000000    51.10000000
   O     51.06000000    41.72000000    50.68000000
   H     53.41000000    42.81000000    52.91000000
   H     51.25000000    42.18000000    54.88000000
   H     49.95000000    43.19000000    53.26000000
   H     49.83000000    41.48000000    52.89000000
   N     51.33000000    39.77000000    54.52000000
   C     51.67000000    38.36000000    54.64000000
   C     53.12000000    38.19000000    55.09000000
   O     53.53000000    38.92000000    55.99000000
   C     50.81000000    37.82000000    55.77000000
   C     51.10000000    36.45000000    56.34000000
   C     51.99000000    36.35000000    57.42000000
   C     50.69000000    35.30000000    55.66000000
   C     52.66000000    35.15000000    57.68000000
   C     51.19000000    34.07000000    56.11000000
   C     52.18000000    33.97000000    57.10000000
   H     50.64000000    40.08000000    55.18000000
   H     51.41000000    37.86000000    53.71000000
   H     49.78000000    37.89000000    55.42000000
   H     50.98000000    38.49000000    56.61000000
   H     52.37000000    37.27000000    57.81000000
   H     50.00000000    35.37000000    54.83000000
   H     53.56000000    35.18000000    58.28000000
   H     50.85000000    33.11000000    55.75000000
   H     52.61000000    33.02000000    57.37000000
   N     53.94000000    37.29000000    54.55000000
   C     55.29000000    36.96000000    54.97000000
   C     56.39000000    37.76000000    54.29000000
   O     57.57000000    37.45000000    54.17000000
   C     55.43000000    35.45000000    54.74000000
   C     54.43000000    35.09000000    53.65000000
   C     53.48000000    36.29000000    53.61000000
   H     55.37000000    37.17000000    56.03000000
   H     56.43000000    35.02000000    54.63000000
   H     55.05000000    34.92000000    55.61000000
   H     54.76000000    34.85000000    52.64000000
   H     53.82000000    34.27000000    54.04000000
   H     53.38000000    36.66000000    52.59000000
   H     52.51000000    35.91000000    53.95000000
   N     56.04000000    38.98000000    53.91000000
   C     56.85000000    39.98000000    53.23000000
   C     57.78000000    40.68000000    54.20000000
   O     58.64000000    41.46000000    53.78000000
   C     55.93000000    40.98000000    52.52000000
   C     55.33000000    40.51000000    51.21000000
   C     54.45000000    41.54000000    50.52000000
   O     54.25000000    42.66000000    51.03000000
   O     53.99000000    41.32000000    49.37000000
   H     55.08000000    39.29000000    53.96000000
   H     57.48000000    39.36000000    52.60000000
   H     56.46000000    41.89000000    52.25000000
   H     55.19000000    41.41000000    53.19000000
   H     54.88000000    39.52000000    51.35000000
   H     56.09000000    40.28000000    50.46000000
   N     57.70000000    40.48000000    55.52000000
   C     58.41000000    41.24000000    56.53000000
   H     59.31700000    41.66100000    56.09600000
   H     57.77300000    42.04700000    56.89300000
   H     58.67500000    40.58400000    57.36000000
   H     57.00000000    39.85000000    55.87000000
  Ca     52.73000000    43.44000000    48.92000000
   O     54.11000000    45.56000000    49.96000000
   H     54.08000000    46.15000000    50.71000000
   H     54.91000000    45.81000000    49.49000000
   O     52.30000000    41.59000000    46.97000000
   H     52.55000000    40.94000000    47.63000000
   H     52.70000000    41.29000000    46.16000000

Ca 1.00



