%chk=loop3.apoCaM-CA-Ng.Init31.run40.water6.chk
%nprocshared=20
%mem=10GB
%nosave
#b3lyp/svp scf=(tight,noincore,xqc) Test 
#IOP(5/87=12) Density=Current Pop=(MK,readradii) iop(6/33=2) iop(6/42=6)

loop3.apoCaM-CA-Ng.Init31.run40.water6 

   0  1 
   C    108.74000000    44.15000000    10.79000000
   C    109.76000000    45.23000000    11.10000000
   O    109.68000000    46.33000000    10.54000000
   H    107.84700000    44.60600000    10.36300000
   H    109.16300000    43.44400000    10.07600000
   H    108.47600000    43.62500000    11.70800000
   N    110.74000000    45.00000000    11.98000000
   C    111.88000000    45.86000000    12.22000000
   C    113.15000000    45.03000000    12.33000000
   O    113.06000000    43.84000000    12.63000000
   C    111.73000000    46.66000000    13.51000000
   C    111.54000000    45.88000000    14.81000000
   O    111.40000000    46.56000000    15.85000000
   O    111.49000000    44.63000000    14.80000000
   H    110.64000000    44.21000000    12.60000000
   H    111.99000000    46.54000000    11.38000000
   H    110.79000000    47.21000000    13.51000000
   H    112.65000000    47.21000000    13.70000000
   N    114.33000000    45.61000000    12.12000000
   C    115.61000000    44.95000000    11.95000000
   C    115.73000000    44.38000000    10.54000000
   O    116.55000000    43.50000000    10.30000000
   C    116.73000000    45.89000000    12.37000000
   C    116.40000000    46.72000000    13.61000000
   C    117.59000000    47.46000000    14.22000000
   C    117.13000000    48.28000000    15.42000000
   N    118.24000000    48.97000000    16.08000000
   H    114.28000000    46.62000000    12.08000000
   H    115.70000000    44.13000000    12.66000000
   H    116.92000000    46.58000000    11.55000000
   H    117.57000000    45.23000000    12.59000000
   H    115.93000000    46.09000000    14.36000000
   H    115.63000000    47.46000000    13.38000000
   H    117.94000000    48.17000000    13.47000000
   H    118.32000000    46.70000000    14.49000000
   H    116.74000000    47.61000000    16.19000000
   H    116.39000000    48.99000000    15.03000000
   H    118.10000000    49.28000000    17.04000000
   H    119.08000000    48.41000000    16.11000000
   H    118.40000000    49.88000000    15.66000000
   N    114.92000000    45.00000000     9.67000000
   C    114.70000000    44.58000000     8.31000000
   C    115.32000000    45.52000000     7.29000000
   O    115.82000000    45.10000000     6.24000000
   C    113.21000000    44.29000000     8.11000000
   C    112.20000000    45.40000000     8.34000000
   O    111.06000000    45.24000000     7.85000000
   O    112.49000000    46.45000000     8.95000000
   H    114.31000000    45.71000000    10.03000000
   H    115.14000000    43.60000000     8.12000000
   H    112.98000000    43.41000000     8.70000000
   H    113.14000000    44.00000000     7.06000000
   N    115.09000000    46.83000000     7.44000000
   C    115.37000000    47.81000000     6.41000000
   C    116.83000000    48.19000000     6.18000000
   O    117.77000000    47.61000000     6.73000000
   H    114.76000000    47.20000000     8.31000000
   H    114.79000000    48.70000000     6.61000000
   H    114.90000000    47.36000000     5.53000000
   N    117.10000000    49.34000000     5.56000000
   C    116.15000000    50.30000000     5.03000000
   C    115.29000000    51.06000000     6.03000000
   O    115.76000000    51.25000000     7.15000000
   C    116.87000000    51.23000000     4.06000000
   C    117.29000000    50.45000000     2.83000000
   N    118.59000000    50.23000000     2.61000000
   O    116.49000000    50.28000000     1.91000000
   H    118.06000000    49.65000000     5.63000000
   H    115.54000000    49.70000000     4.36000000
   H    117.70000000    51.79000000     4.49000000
   H    116.09000000    51.91000000     3.70000000
   H    119.16000000    50.59000000     3.36000000
   H    118.99000000    50.00000000     1.72000000
   N    114.05000000    51.52000000     5.83000000
   C    113.38000000    51.52000000     4.54000000
   C    112.70000000    50.22000000     4.15000000
   O    112.92000000    49.16000000     4.74000000
   H    113.66000000    51.97000000     6.64000000
   H    114.06000000    51.80000000     3.74000000
   H    112.52000000    52.19000000     4.56000000
   N    111.88000000    50.26000000     3.10000000
   C    111.26000000    49.11000000     2.46000000
   C    112.19000000    48.34000000     1.54000000
   O    112.72000000    48.93000000     0.60000000
   C    109.94000000    49.48000000     1.79000000
   C    108.82000000    50.03000000     2.65000000
   C    107.73000000    49.24000000     3.02000000
   C    108.88000000    51.39000000     2.99000000
   C    106.67000000    49.87000000     3.68000000
   C    107.84000000    51.97000000     3.73000000
   C    106.68000000    51.23000000     4.04000000
   O    105.68000000    51.78000000     4.78000000
   H    111.87000000    51.05000000     2.48000000
   H    110.94000000    48.43000000     3.25000000
   H    109.55000000    48.67000000     1.17000000
   H    110.17000000    50.19000000     0.99000000
   H    107.73000000    48.17000000     2.89000000
   H    109.77000000    51.91000000     2.67000000
   H    105.84000000    49.37000000     4.17000000
   H    107.86000000    53.03000000     3.94000000
   H    105.85000000    52.71000000     4.94000000
   N    112.30000000    47.05000000     1.85000000
   C    113.11000000    46.15000000     1.05000000
   C    112.33000000    45.61000000    -0.14000000
   O    112.99000000    45.26000000    -1.11000000
   C    113.83000000    45.15000000     1.95000000
   C    114.85000000    45.80000000     2.88000000
   C    112.79000000    44.32000000     2.70000000
   C    115.72000000    46.92000000     2.31000000
   H    111.66000000    46.62000000     2.49000000
   H    113.94000000    46.74000000     0.66000000
   H    114.41000000    44.41000000     1.40000000
   H    115.52000000    45.06000000     3.34000000
   H    114.25000000    46.26000000     3.65000000
   H    113.31000000    43.50000000     3.20000000
   H    112.29000000    44.90000000     3.48000000
   H    112.04000000    44.01000000     1.97000000
   H    116.42000000    47.34000000     3.04000000
   H    116.32000000    46.61000000     1.46000000
   H    115.13000000    47.77000000     1.98000000
   N    111.00000000    45.51000000    -0.05000000
   C    110.16000000    45.12000000    -1.16000000
   C    109.89000000    43.63000000    -1.36000000
   O    109.44000000    43.36000000    -2.47000000
   C    108.86000000    45.91000000    -1.19000000
   O    108.02000000    45.57000000    -0.11000000
   H    110.60000000    45.99000000     0.74000000
   H    110.60000000    45.47000000    -2.09000000
   H    108.23000000    45.86000000    -2.08000000
   H    109.13000000    46.96000000    -1.07000000
   H    108.50000000    45.75000000     0.70000000
   N    110.24000000    42.74000000    -0.42000000
   C    109.97000000    41.32000000    -0.35000000
   C    109.31000000    40.91000000     0.96000000
   O    109.83000000    41.17000000     2.04000000
   C    111.31000000    40.65000000    -0.62000000
   H    110.71000000    43.10000000     0.40000000
   H    109.34000000    41.10000000    -1.20000000
   H    111.74000000    40.94000000    -1.57000000
   H    111.96000000    41.10000000     0.13000000
   H    111.26000000    39.56000000    -0.56000000
   N    108.15000000    40.26000000     0.80000000
   C    107.39000000    39.51000000     1.78000000
   C    106.88000000    40.30000000     2.98000000
   O    106.53000000    39.73000000     4.00000000
   C    108.22000000    38.26000000     2.09000000
   H    107.88000000    40.16000000    -0.17000000
   H    106.54000000    39.22000000     1.17000000
   H    109.17000000    38.57000000     2.52000000
   H    107.70000000    37.65000000     2.83000000
   H    108.45000000    37.76000000     1.15000000
   N    106.91000000    41.63000000     2.90000000
   C    106.50000000    42.56000000     3.93000000
   C    105.21000000    43.35000000     3.71000000
   O    104.60000000    43.73000000     4.70000000
   C    107.68000000    43.49000000     4.21000000
   C    107.73000000    44.64000000     3.22000000
   C    108.99000000    45.50000000     3.22000000
   O    109.49000000    45.98000000     4.26000000
   O    109.39000000    45.87000000     2.09000000
   H    107.32000000    42.00000000     2.05000000
   H    106.45000000    41.97000000     4.84000000
   H    108.67000000    43.03000000     4.14000000
   H    107.52000000    43.90000000     5.20000000
   H    106.82000000    45.19000000     3.49000000
   H    107.57000000    44.22000000     2.23000000
   N    104.70000000    43.48000000     2.48000000
   C    103.39000000    43.98000000     2.14000000
   H    102.70600000    43.79900000     2.96900000
   H    103.44900000    45.05100000     1.94500000
   H    103.02400000    43.46700000     1.25000000
   H    105.23000000    43.09000000     1.72000000
  Ca    110.31600000    47.74000000     8.35000000
   O    108.36600000    46.84000000     6.74000000
   H    108.84600000    46.47000000     6.00000000
   H    107.51600000    46.40000000     6.71000000
   O    111.37600000    47.29000000     5.94000000
   H    110.89600000    46.95000000     5.19000000
   H    112.07600000    47.81000000     5.56000000
   O    109.56600000    49.74000000     6.57000000
   H    109.76600000    49.70000000     5.63000000
   H    109.90600000    50.59000000     6.85000000
   O    107.99600000    48.36000000     9.44000000
   H    107.55600000    47.97000000    10.19000000
   H    107.29600000    48.55000000     8.82000000
   O    112.15600000    49.41000000     7.68000000
   H    112.56600000    50.00000000     8.31000000
   H    112.76600000    49.40000000     6.94000000
   O    111.40600000    48.93000000    10.58000000
   H    110.81600000    49.45000000    11.13000000
   H    112.12600000    49.53000000    10.37000000

Ca 1.00



