%chk=loop4.apoCaM-CA-Ng.Init295.run66.water3.chk
%nprocshared=20
%mem=10GB
%nosave
#b3lyp/svp scf=(tight,noincore,xqc) Test 
#IOP(5/87=12) Density=Current Pop=(MK,readradii) iop(6/33=2) iop(6/42=6)

loop4.apoCaM-CA-Ng.Init295.run66.water3 

   -3  1 
   C    102.66000000    58.85000000    33.91000000
   C    103.68000000    57.72000000    33.93000000
   O    104.83000000    57.99000000    34.27000000
   H    101.75700000    58.53200000    34.43100000
   H    103.07700000    59.72500000    34.40800000
   H    102.41500000    59.10100000    32.87800000
   N    103.35000000    56.46000000    33.65000000
   C    104.23000000    55.31000000    33.60000000
   C    104.87000000    54.92000000    34.93000000
   O    105.93000000    54.30000000    34.95000000
   C    105.19000000    55.31000000    32.42000000
   C    104.54000000    55.91000000    31.18000000
   O    104.69000000    57.11000000    30.84000000
   O    103.75000000    55.29000000    30.43000000
   H    102.37000000    56.33000000    33.42000000
   H    103.59000000    54.43000000    33.49000000
   H    105.56000000    54.30000000    32.26000000
   H    106.14000000    55.77000000    32.69000000
   N    104.25000000    55.28000000    36.05000000
   C    104.80000000    55.09000000    37.38000000
   C    104.75000000    53.62000000    37.79000000
   O    103.68000000    53.06000000    37.60000000
   C    104.10000000    56.05000000    38.34000000
   C    104.20000000    57.51000000    37.91000000
   C    104.67000000    55.81000000    39.73000000
   C    103.52000000    58.49000000    38.86000000
   H    103.31000000    55.63000000    35.93000000
   H    105.86000000    55.35000000    37.31000000
   H    103.04000000    55.80000000    38.37000000
   H    103.86000000    57.63000000    36.88000000
   H    105.26000000    57.78000000    37.93000000
   H    104.07000000    56.39000000    40.43000000
   H    104.66000000    54.77000000    40.08000000
   H    105.69000000    56.19000000    39.81000000
   H    103.43000000    59.42000000    38.30000000
   H    102.57000000    58.07000000    39.19000000
   H    104.20000000    58.65000000    39.69000000
   N    105.74000000    52.99000000    38.43000000
   C    107.09000000    53.50000000    38.56000000
   C    107.88000000    53.39000000    37.27000000
   O    108.55000000    54.35000000    36.89000000
   C    107.87000000    52.80000000    39.67000000
   C    107.38000000    53.02000000    41.10000000
   O    107.49000000    54.15000000    41.60000000
   O    106.85000000    52.11000000    41.77000000
   H    105.60000000    51.99000000    38.43000000
   H    107.04000000    54.57000000    38.78000000
   H    108.87000000    53.23000000    39.62000000
   H    107.98000000    51.72000000    39.55000000
   N    107.81000000    52.25000000    36.58000000
   C    108.41000000    52.12000000    35.27000000
   C    109.93000000    52.03000000    35.27000000
   O    110.56000000    51.33000000    36.06000000
   H    107.19000000    51.52000000    36.90000000
   H    108.19000000    53.06000000    34.78000000
   H    107.91000000    51.32000000    34.73000000
   N    110.51000000    52.87000000    34.41000000
   C    111.96000000    52.95000000    34.33000000
   C    112.55000000    54.34000000    34.53000000
   O    113.76000000    54.44000000    34.68000000
   C    112.42000000    52.44000000    32.96000000
   C    111.80000000    53.18000000    31.78000000
   O    111.65000000    52.57000000    30.70000000
   O    111.44000000    54.38000000    31.80000000
   H    110.02000000    53.53000000    33.81000000
   H    112.48000000    52.31000000    35.04000000
   H    112.22000000    51.38000000    32.85000000
   H    113.48000000    52.65000000    32.83000000
   N    111.70000000    55.37000000    34.63000000
   C    112.06000000    56.77000000    34.75000000
   C    112.65000000    57.42000000    33.50000000
   O    113.25000000    58.47000000    33.68000000
   H    110.70000000    55.24000000    34.58000000
   H    112.85000000    56.76000000    35.49000000
   H    111.19000000    57.36000000    35.04000000
   N    112.67000000    56.79000000    32.32000000
   C    113.35000000    57.27000000    31.13000000
   C    113.09000000    58.70000000    30.68000000
   O    113.93000000    59.40000000    30.12000000
   C    114.83000000    56.89000000    31.22000000
   C    115.07000000    55.39000000    31.19000000
   C    114.48000000    54.58000000    30.04000000
   N    114.51000000    53.25000000    30.10000000
   O    113.99000000    55.12000000    29.05000000
   H    112.17000000    55.91000000    32.32000000
   H    112.83000000    56.78000000    30.32000000
   H    115.33000000    57.32000000    32.09000000
   H    115.36000000    57.40000000    30.42000000
   H    114.59000000    54.94000000    32.06000000
   H    116.13000000    55.13000000    31.26000000
   H    114.80000000    52.72000000    30.91000000
   H    113.98000000    52.75000000    29.40000000
   N    111.88000000    59.19000000    30.95000000
   C    111.50000000    60.58000000    30.76000000
   C    111.17000000    60.72000000    29.29000000
   O    110.55000000    59.87000000    28.65000000
   C    110.37000000    60.94000000    31.71000000
   C    110.79000000    61.11000000    33.17000000
   C    109.62000000    62.21000000    31.32000000
   H    111.24000000    58.53000000    31.39000000
   H    112.32000000    61.27000000    30.98000000
   H    109.65000000    60.12000000    31.62000000
   H    109.97000000    61.51000000    33.77000000
   H    110.99000000    60.09000000    33.51000000
   H    111.69000000    61.72000000    33.23000000
   H    110.39000000    62.99000000    31.28000000
   H    109.02000000    62.17000000    30.42000000
   H    108.97000000    62.40000000    32.18000000
   N    111.69000000    61.79000000    28.68000000
   C    111.45000000    62.24000000    27.33000000
   C    110.83000000    63.63000000    27.29000000
   O    110.97000000    64.34000000    28.28000000
   C    112.65000000    62.11000000    26.40000000
   C    112.34000000    61.99000000    24.91000000
   N    113.37000000    62.02000000    24.06000000
   O    111.20000000    61.87000000    24.46000000
   H    112.36000000    62.36000000    29.18000000
   H    110.76000000    61.50000000    26.93000000
   H    113.16000000    61.18000000    26.61000000
   H    113.30000000    62.94000000    26.69000000
   H    114.35000000    62.08000000    24.30000000
   H    113.20000000    61.88000000    23.08000000
   N    110.12000000    64.07000000    26.24000000
   C    109.44000000    65.34000000    26.13000000
   C    108.06000000    65.18000000    25.48000000
   O    107.54000000    66.13000000    24.90000000
   C    110.34000000    66.47000000    25.65000000
   C    110.33000000    67.61000000    26.64000000
   C    111.32000000    67.80000000    27.61000000
   C    109.27000000    68.51000000    26.52000000
   C    111.37000000    69.02000000    28.30000000
   C    109.15000000    69.60000000    27.39000000
   C    110.26000000    69.87000000    28.22000000
   O    110.36000000    71.09000000    28.83000000
   H    109.82000000    63.35000000    25.60000000
   H    109.19000000    65.73000000    27.11000000
   H    110.06000000    66.88000000    24.68000000
   H    111.35000000    66.11000000    25.44000000
   H    112.14000000    67.09000000    27.69000000
   H    108.43000000    68.22000000    25.92000000
   H    112.15000000    69.32000000    28.98000000
   H    108.33000000    70.30000000    27.38000000
   H    109.47000000    71.45000000    28.73000000
   N    107.66000000    63.93000000    25.29000000
   C    106.59000000    63.58000000    24.38000000
   C    105.24000000    64.25000000    24.59000000
   O    104.63000000    64.79000000    23.67000000
   C    106.74000000    62.07000000    24.20000000
   C    105.76000000    61.53000000    23.16000000
   C    105.92000000    60.03000000    23.01000000
   O    105.20000000    59.32000000    23.74000000
   O    106.84000000    59.58000000    22.29000000
   H    108.23000000    63.18000000    25.67000000
   H    106.90000000    64.13000000    23.49000000
   H    106.68000000    61.56000000    25.16000000
   H    107.79000000    62.02000000    23.93000000
   H    106.04000000    62.02000000    22.22000000
   H    104.76000000    61.82000000    23.46000000
   N    104.58000000    64.07000000    25.73000000
   C    104.94000000    63.57000000    27.05000000
   C    105.24000000    64.56000000    28.16000000
   O    105.27000000    65.75000000    27.87000000
   C    104.04000000    62.44000000    27.53000000
   C    104.28000000    61.07000000    26.89000000
   C    103.56000000    59.95000000    27.62000000
   O    103.93000000    59.53000000    28.73000000
   O    102.71000000    59.24000000    27.04000000
   H    103.73000000    64.60000000    25.81000000
   H    105.88000000    63.04000000    26.92000000
   H    102.99000000    62.64000000    27.35000000
   H    104.15000000    62.39000000    28.62000000
   H    105.34000000    60.87000000    26.98000000
   H    104.01000000    61.13000000    25.83000000
   N    105.62000000    64.13000000    29.37000000
   C    106.36000000    64.83000000    30.40000000
   H    107.26500000    65.25900000    29.96900000
   H    105.74200000    65.62700000    30.81400000
   H    106.63100000    64.13100000    31.19100000
   H    105.50000000    63.16000000    29.61000000
  Ca    102.78400000    57.34000000    28.95000000
   O    105.71400000    57.44000000    28.15000000
   H    105.59400000    58.02000000    28.90000000
   H    106.48400000    56.92000000    28.38000000
   O    101.02400000    55.38000000    28.34000000
   H    100.64400000    55.44000000    27.47000000
   H    100.27400000    55.23000000    28.92000000
   O    103.40400000    56.25000000    26.59000000
   H    104.22400000    56.32000000    26.11000000
   H    102.75400000    56.05000000    25.91000000

Ca 1.00



