%chk=loop3.apoCaM-CA-Ng.Init31.run60.water6.chk
%nprocshared=20
%mem=10GB
%nosave
#b3lyp/svp scf=(tight,noincore,xqc) Test 
#IOP(5/87=12) Density=Current Pop=(MK,readradii) iop(6/33=2) iop(6/42=6)

loop3.apoCaM-CA-Ng.Init31.run60.water6 

   0  1 
   C    106.93000000    55.23000000     8.09000000
   C    106.53000000    56.47000000     7.31000000
   O    105.41000000    56.98000000     7.29000000
   H    107.83100000    55.43900000     8.66700000
   H    106.12300000    54.95000000     8.76700000
   H    107.12500000    54.41100000     7.39700000
   N    107.48000000    56.88000000     6.46000000
   C    107.26000000    57.63000000     5.24000000
   C    107.09000000    56.70000000     4.05000000
   O    107.78000000    55.68000000     3.98000000
   C    108.34000000    58.66000000     4.90000000
   C    109.74000000    58.07000000     4.93000000
   O    110.38000000    58.06000000     6.00000000
   O    110.31000000    57.81000000     3.84000000
   H    108.41000000    56.50000000     6.55000000
   H    106.35000000    58.21000000     5.34000000
   H    108.35000000    59.36000000     5.74000000
   H    108.15000000    59.16000000     3.95000000
   N    106.22000000    57.09000000     3.11000000
   C    106.09000000    56.41000000     1.83000000
   C    105.17000000    55.21000000     2.02000000
   O    105.33000000    54.28000000     1.22000000
   C    105.59000000    57.34000000     0.73000000
   C    105.63000000    56.81000000    -0.70000000
   C    105.61000000    58.01000000    -1.64000000
   C    105.59000000    57.50000000    -3.08000000
   N    105.59000000    58.61000000    -4.03000000
   H    105.55000000    57.84000000     3.22000000
   H    107.10000000    56.06000000     1.60000000
   H    106.13000000    58.28000000     0.83000000
   H    104.55000000    57.54000000     1.01000000
   H    104.78000000    56.17000000    -0.94000000
   H    106.51000000    56.18000000    -0.82000000
   H    106.56000000    58.54000000    -1.58000000
   H    104.75000000    58.68000000    -1.54000000
   H    104.70000000    56.91000000    -3.28000000
   H    106.51000000    56.92000000    -3.08000000
   H    104.74000000    59.13000000    -3.87000000
   H    106.45000000    59.14000000    -3.97000000
   H    105.42000000    58.31000000    -4.98000000
   N    104.17000000    55.32000000     2.89000000
   C    103.15000000    54.32000000     3.10000000
   C    101.92000000    54.50000000     2.22000000
   O    100.82000000    54.86000000     2.64000000
   C    102.78000000    54.23000000     4.58000000
   C    102.50000000    55.56000000     5.27000000
   O    102.13000000    55.56000000     6.46000000
   O    102.46000000    56.66000000     4.67000000
   H    104.05000000    56.15000000     3.44000000
   H    103.62000000    53.36000000     2.88000000
   H    103.62000000    53.80000000     5.13000000
   H    101.86000000    53.67000000     4.78000000
   N    102.14000000    54.35000000     0.92000000
   C    101.16000000    54.57000000    -0.13000000
   C    100.92000000    56.02000000    -0.53000000
   O    101.25000000    56.98000000     0.16000000
   H    103.05000000    54.00000000     0.66000000
   H    100.26000000    54.00000000     0.10000000
   H    101.57000000    54.08000000    -1.01000000
   N    100.24000000    56.37000000    -1.63000000
   C     99.45000000    55.55000000    -2.53000000
   C     98.01000000    56.01000000    -2.69000000
   O     97.79000000    57.22000000    -2.57000000
   C    100.13000000    55.46000000    -3.90000000
   C    101.51000000    54.84000000    -3.90000000
   N    102.62000000    55.59000000    -3.93000000
   O    101.67000000    53.62000000    -3.86000000
   H    100.41000000    57.32000000    -1.92000000
   H     99.36000000    54.54000000    -2.16000000
   H    100.22000000    56.49000000    -4.26000000
   H     99.46000000    55.04000000    -4.65000000
   H    102.58000000    56.53000000    -4.30000000
   H    103.47000000    55.07000000    -4.06000000
   N     97.07000000    55.09000000    -2.89000000
   C     97.26000000    53.67000000    -3.11000000
   C     97.47000000    52.77000000    -1.90000000
   O     98.04000000    53.22000000    -0.90000000
   H     96.14000000    55.46000000    -3.01000000
   H     98.07000000    53.41000000    -3.80000000
   H     96.39000000    53.27000000    -3.64000000
   N     97.10000000    51.50000000    -2.10000000
   C     96.90000000    50.48000000    -1.10000000
   C     97.18000000    49.11000000    -1.69000000
   O     96.28000000    48.29000000    -1.88000000
   C     95.54000000    50.61000000    -0.41000000
   C     95.21000000    51.93000000     0.25000000
   C     96.07000000    52.49000000     1.21000000
   C     94.08000000    52.67000000    -0.11000000
   C     95.71000000    53.61000000     1.96000000
   C     93.73000000    53.82000000     0.60000000
   C     94.55000000    54.33000000     1.63000000
   O     94.20000000    55.42000000     2.38000000
   H     96.71000000    51.33000000    -3.02000000
   H     97.69000000    50.65000000    -0.37000000
   H     95.59000000    49.88000000     0.40000000
   H     94.82000000    50.28000000    -1.15000000
   H     97.00000000    52.01000000     1.46000000
   H     93.43000000    52.36000000    -0.91000000
   H     96.36000000    53.90000000     2.78000000
   H     92.77000000    54.25000000     0.35000000
   H     93.48000000    55.85000000     1.91000000
   N     98.41000000    48.78000000    -2.08000000
   C     98.81000000    47.65000000    -2.90000000
   C     99.98000000    46.93000000    -2.26000000
   O    100.03000000    45.71000000    -2.41000000
   C     99.13000000    48.07000000    -4.33000000
   C     99.40000000    46.82000000    -5.17000000
   C     98.03000000    48.88000000    -5.02000000
   C     99.68000000    47.04000000    -6.65000000
   H     99.07000000    49.54000000    -2.07000000
   H     98.01000000    46.90000000    -2.94000000
   H    100.05000000    48.65000000    -4.32000000
   H     98.53000000    46.18000000    -5.08000000
   H    100.23000000    46.24000000    -4.77000000
   H     98.24000000    49.28000000    -6.01000000
   H     97.05000000    48.40000000    -5.05000000
   H     97.87000000    49.80000000    -4.46000000
   H    100.38000000    47.86000000    -6.79000000
   H    100.21000000    46.17000000    -7.05000000
   H     98.78000000    47.24000000    -7.25000000
   N    100.93000000    47.62000000    -1.63000000
   C    102.28000000    47.11000000    -1.47000000
   C    103.32000000    48.22000000    -1.49000000
   O    104.47000000    47.90000000    -1.81000000
   C    102.42000000    46.38000000    -0.13000000
   O    102.30000000    47.22000000     0.99000000
   H    100.68000000    48.50000000    -1.19000000
   H    102.57000000    46.48000000    -2.31000000
   H    103.36000000    45.84000000    -0.09000000
   H    101.69000000    45.57000000    -0.09000000
   H    101.70000000    47.93000000     0.73000000
   N    103.01000000    49.48000000    -1.19000000
   C    103.86000000    50.64000000    -1.03000000
   C    104.11000000    50.72000000     0.47000000
   O    103.86000000    51.73000000     1.11000000
   C    103.33000000    51.92000000    -1.67000000
   H    102.10000000    49.60000000    -0.78000000
   H    104.80000000    50.50000000    -1.57000000
   H    103.17000000    51.71000000    -2.72000000
   H    102.35000000    52.17000000    -1.25000000
   H    104.10000000    52.67000000    -1.54000000
   N    104.58000000    49.70000000     1.19000000
   C    104.83000000    49.67000000     2.62000000
   C    103.64000000    50.10000000     3.46000000
   O    103.85000000    50.58000000     4.57000000
   C    106.14000000    50.41000000     2.90000000
   H    104.92000000    48.86000000     0.74000000
   H    104.89000000    48.60000000     2.78000000
   H    106.04000000    51.41000000     2.48000000
   H    106.36000000    50.48000000     3.97000000
   H    106.98000000    49.95000000     2.40000000
   N    102.37000000    50.04000000     3.05000000
   C    101.19000000    50.69000000     3.57000000
   C    100.24000000    49.61000000     4.06000000
   O     99.78000000    49.75000000     5.20000000
   C    100.69000000    51.66000000     2.51000000
   C     99.60000000    51.08000000     1.61000000
   C    100.15000000    50.26000000     0.46000000
   O    100.77000000    49.20000000     0.71000000
   O    100.22000000    50.70000000    -0.71000000
   H    102.25000000    49.48000000     2.21000000
   H    101.54000000    51.23000000     4.45000000
   H    101.51000000    51.99000000     1.87000000
   H    100.26000000    52.52000000     3.04000000
   H     99.10000000    51.98000000     1.24000000
   H     98.80000000    50.56000000     2.14000000
   N    100.03000000    48.50000000     3.35000000
   C     99.22000000    47.39000000     3.82000000
   H     98.26200000    47.39400000     3.30000000
   H     99.73700000    46.45200000     3.62000000
   H     99.05100000    47.49100000     4.89200000
   H    100.56000000    48.33000000     2.51000000
  Ca    101.04800000    57.84000000     6.53000000
   O    103.63800000    58.81000000     6.45000000
   H    103.72800000    59.18000000     5.57000000
   H    104.39800000    58.23000000     6.54000000
   O    101.63800000    59.73000000     4.71000000
   H    101.82800000    60.66000000     4.61000000
   H    101.92800000    59.34000000     3.89000000
   O    102.68800000    57.25000000     8.92000000
   H    103.47800000    57.63000000     8.52000000
   H    102.98800000    56.94000000     9.78000000
   O     99.52000000    56.44000000     8.47000000
   H     99.63000000    55.70000000     9.06000000
   H     99.28000000    57.17000000     9.04000000
   O     99.55000000    56.35000000     4.64000000
   H    100.04000000    55.83000000     4.00000000
   H     98.68000000    56.44000000     4.25000000
   O     98.56000000    58.91000000     6.08000000
   H     98.24000000    59.73000000     6.46000000
   H     97.85000000    58.29000000     6.21000000

Ca 1.00



