%chk=loop2.apoCaM-CA-Ng.Init31.run87.water4.chk
%nprocshared=20
%mem=10GB
%nosave
#b3lyp/svp scf=(tight,noincore,xqc) Test 
#IOP(5/87=12) Density=Current Pop=(MK,readradii) iop(6/33=2) iop(6/42=6)

loop2.apoCaM-CA-Ng.Init31.run87.water4 

   -2  1 
   C     77.91000000    62.29000000     7.60000000
   C     77.52000000    60.98000000     6.94000000
   O     76.52000000    60.85000000     6.24000000
   H     78.81300000    62.67900000     7.12900000
   H     77.10100000    63.01100000     7.48300000
   H     78.09700000    62.12200000     8.66000000
   N     78.30000000    59.90000000     7.04000000
   C     79.59000000    59.70000000     7.65000000
   C     79.49000000    59.02000000     9.01000000
   O     79.13000000    57.85000000     9.12000000
   C     80.43000000    58.88000000     6.67000000
   C     79.94000000    57.47000000     6.39000000
   O     78.70000000    57.29000000     6.29000000
   O     80.70000000    56.51000000     6.15000000
   H     78.18000000    59.17000000     6.35000000
   H     80.19000000    60.60000000     7.78000000
   H     81.37000000    58.76000000     7.20000000
   H     80.57000000    59.45000000     5.75000000
   N     79.94000000    59.74000000    10.04000000
   C     80.30000000    59.24000000    11.35000000
   C     79.25000000    58.78000000    12.34000000
   O     79.46000000    58.69000000    13.55000000
   C     81.22000000    60.27000000    12.01000000
   H     80.12000000    60.72000000     9.87000000
   H     80.89000000    58.35000000    11.12000000
   H     81.63000000    59.90000000    12.95000000
   H     82.00000000    60.33000000    11.25000000
   H     80.75000000    61.22000000    12.25000000
   N     78.04000000    58.52000000    11.85000000
   C     76.97000000    57.83000000    12.55000000
   C     77.00000000    56.37000000    12.13000000
   O     77.25000000    56.12000000    10.96000000
   C     75.62000000    58.46000000    12.22000000
   C     75.25000000    58.66000000    10.76000000
   O     76.11000000    58.42000000     9.88000000
   O     74.06000000    58.95000000    10.53000000
   H     77.93000000    58.53000000    10.85000000
   H     77.11000000    57.85000000    13.63000000
   H     75.72000000    59.46000000    12.64000000
   H     74.82000000    57.90000000    12.70000000
   N     76.86000000    55.49000000    13.13000000
   C     76.57000000    54.12000000    12.78000000
   C     75.24000000    54.04000000    12.03000000
   O     74.34000000    54.84000000    12.25000000
   H     76.50000000    55.77000000    14.03000000
   H     76.46000000    53.51000000    13.68000000
   H     77.25000000    53.66000000    12.07000000
   N     75.14000000    53.05000000    11.14000000
   C     73.90000000    52.62000000    10.54000000
   C     73.89000000    51.11000000    10.35000000
   O     74.87000000    50.51000000     9.93000000
   C     73.59000000    53.27000000     9.19000000
   C     73.60000000    54.79000000     9.09000000
   N     72.52000000    55.40000000     8.61000000
   O     74.65000000    55.43000000     9.20000000
   H     76.02000000    52.58000000    10.95000000
   H     73.14000000    52.88000000    11.27000000
   H     72.58000000    53.03000000     8.86000000
   H     74.25000000    52.96000000     8.38000000
   H     71.75000000    54.83000000     8.29000000
   H     72.55000000    56.40000000     8.42000000
   N     72.70000000    50.54000000    10.58000000
   C     72.36000000    49.13000000    10.53000000
   C     73.01000000    48.33000000    11.65000000
   O     74.13000000    47.88000000    11.44000000
   H     72.03000000    51.28000000    10.73000000
   H     72.70000000    48.76000000     9.56000000
   H     71.28000000    49.01000000    10.59000000
   N     72.33000000    48.01000000    12.75000000
   C     70.96000000    48.34000000    13.08000000
   C     70.83000000    49.25000000    14.30000000
   O     69.78000000    49.86000000    14.52000000
   C     70.14000000    47.08000000    13.30000000
   C     68.65000000    47.42000000    13.20000000
   O     70.28000000    46.04000000    12.35000000
   H     72.82000000    47.31000000    13.30000000
   H     70.45000000    48.91000000    12.30000000
   H     70.30000000    46.72000000    14.31000000
   H     70.08000000    45.21000000    12.79000000
   H     68.29000000    48.19000000    13.89000000
   H     68.39000000    47.93000000    12.27000000
   H     68.09000000    46.49000000    13.25000000
   N     71.86000000    49.34000000    15.13000000
   C     71.96000000    50.09000000    16.37000000
   C     70.78000000    49.83000000    17.29000000
   O     69.97000000    50.75000000    17.39000000
   C     72.17000000    51.58000000    16.14000000
   C     72.97000000    51.90000000    14.88000000
   C     72.79000000    52.30000000    17.34000000
   C     74.38000000    51.34000000    14.67000000
   H     72.66000000    48.77000000    14.88000000
   H     72.83000000    49.65000000    16.87000000
   H     71.17000000    52.01000000    16.07000000
   H     72.93000000    52.98000000    14.73000000
   H     72.39000000    51.58000000    14.02000000
   H     73.00000000    53.34000000    17.11000000
   H     72.12000000    52.29000000    18.19000000
   H     73.71000000    51.82000000    17.68000000
   H     75.01000000    51.89000000    15.37000000
   H     74.42000000    50.26000000    14.75000000
   H     74.77000000    51.57000000    13.68000000
   N     70.72000000    48.68000000    17.98000000
   C     71.76000000    47.68000000    18.09000000
   C     72.56000000    48.07000000    19.33000000
   O     73.78000000    48.13000000    19.19000000
   C     71.13000000    46.30000000    18.25000000
   C     70.10000000    46.12000000    19.36000000
   O     69.91000000    44.97000000    19.81000000
   O     69.44000000    47.03000000    19.90000000
   H     69.85000000    48.52000000    18.47000000
   H     72.46000000    47.66000000    17.25000000
   H     71.90000000    45.55000000    18.40000000
   H     70.59000000    46.02000000    17.35000000
   N     71.94000000    48.31000000    20.48000000
   C     72.69000000    48.62000000    21.68000000
   C     71.97000000    48.09000000    22.91000000
   O     70.85000000    47.63000000    22.74000000
   C     72.81000000    50.13000000    21.80000000
   C     71.56000000    50.94000000    22.06000000
   C     70.55000000    51.10000000    21.12000000
   C     71.56000000    51.84000000    23.14000000
   C     69.49000000    52.00000000    21.26000000
   C     70.49000000    52.72000000    23.34000000
   C     69.47000000    52.83000000    22.39000000
   H     70.95000000    48.10000000    20.47000000
   H     73.61000000    48.05000000    21.56000000
   H     73.05000000    50.46000000    20.79000000
   H     73.61000000    50.45000000    22.47000000
   H     70.62000000    50.64000000    20.14000000
   H     72.40000000    51.91000000    23.82000000
   H     68.77000000    52.11000000    20.46000000
   H     70.46000000    53.41000000    24.18000000
   H     68.77000000    53.64000000    22.48000000
   N     72.48000000    48.12000000    24.15000000
   C     73.85000000    48.26000000    24.62000000
   C     74.85000000    47.62000000    23.67000000
   O     74.54000000    46.57000000    23.11000000
   C     73.91000000    47.55000000    25.97000000
   C     72.56000000    46.87000000    26.15000000
   C     71.69000000    47.81000000    25.32000000
   H     73.97000000    49.33000000    24.73000000
   H     74.66000000    46.75000000    26.03000000
   H     74.13000000    48.18000000    26.82000000
   H     72.55000000    45.86000000    25.74000000
   H     72.34000000    46.89000000    27.22000000
   H     70.75000000    47.34000000    25.03000000
   H     71.55000000    48.77000000    25.81000000
   N     76.05000000    48.20000000    23.75000000
   C     77.24000000    47.84000000    23.00000000
   C     78.22000000    48.99000000    22.87000000
   O     79.28000000    49.03000000    23.50000000
   C     77.93000000    46.67000000    23.71000000
   C     79.03000000    46.00000000    22.89000000
   C     79.95000000    45.08000000    23.67000000
   O     80.81000000    45.50000000    24.48000000
   O     79.80000000    43.84000000    23.66000000
   H     76.22000000    48.91000000    24.45000000
   H     76.93000000    47.48000000    22.03000000
   H     77.10000000    46.01000000    23.97000000
   H     78.17000000    46.95000000    24.73000000
   H     79.74000000    46.64000000    22.37000000
   H     78.55000000    45.35000000    22.16000000
   N     77.91000000    50.12000000    22.22000000
   C     76.70000000    50.64000000    21.62000000
   H     75.93500000    50.75400000    22.38800000
   H     76.90600000    51.60900000    21.16600000
   H     76.34700000    49.94800000    20.85500000
   H     78.75000000    50.68000000    22.20000000
  Ca     77.01000000    56.57000000     8.20000000
   O     79.30000000    55.15000000     8.12000000
   H     80.03000000    55.57000000     7.68000000
   H     79.70000000    54.42000000     8.60000000
   O     76.97000000    53.90000000     8.55000000
   H     77.41000000    53.37000000     9.21000000
   H     76.82000000    53.30000000     7.82000000
   O     76.22000000    55.13000000     6.02000000
   H     76.71000000    54.46000000     5.53000000
   H     75.36000000    55.15000000     5.61000000
   O     75.49000000    57.93000000     6.66000000
   H     75.57000000    58.77000000     6.21000000
   H     74.58000000    57.68000000     6.52000000

Ca 1.00



