%chk=loop4.apoCaM-CA-Ng.Init295.run84.water3.chk
%nprocshared=20
%mem=10GB
%nosave
#b3lyp/svp scf=(tight,noincore,xqc) Test 
#IOP(5/87=12) Density=Current Pop=(MK,readradii) iop(6/33=2) iop(6/42=6)

loop4.apoCaM-CA-Ng.Init295.run84.water3 

   -3  1 
   C      0.58000000   -23.80000000    44.76000000
   C     -0.34000000   -25.01000000    44.62000000
   O     -1.45000000   -24.99000000    45.15000000
   H      1.50400000   -23.98100000    44.21100000
   H      0.08500000   -22.91700000    44.35500000
   H      0.81000000   -23.63700000    45.81300000
   N      0.06000000   -26.06000000    43.90000000
   C     -0.75000000   -27.22000000    43.56000000
   C     -2.09000000   -26.87000000    42.92000000
   O     -3.05000000   -27.57000000    43.24000000
   C     -0.97000000   -28.12000000    44.77000000
   C      0.31000000   -28.43000000    45.51000000
   O      0.26000000   -28.61000000    46.75000000
   O      1.38000000   -28.46000000    44.86000000
   H      1.01000000   -26.10000000    43.57000000
   H     -0.25000000   -27.75000000    42.75000000
   H     -1.48000000   -29.05000000    44.53000000
   H     -1.56000000   -27.59000000    45.52000000
   N     -2.07000000   -25.99000000    41.92000000
   C     -3.10000000   -25.74000000    40.93000000
   C     -3.16000000   -26.92000000    39.97000000
   O     -2.26000000   -27.13000000    39.16000000
   C     -2.97000000   -24.41000000    40.19000000
   C     -2.52000000   -23.19000000    40.99000000
   C     -4.29000000   -24.16000000    39.48000000
   C     -3.39000000   -22.85000000    42.20000000
   H     -1.22000000   -25.43000000    41.89000000
   H     -4.06000000   -25.67000000    41.45000000
   H     -2.23000000   -24.53000000    39.39000000
   H     -2.36000000   -22.31000000    40.37000000
   H     -1.51000000   -23.38000000    41.35000000
   H     -4.37000000   -23.15000000    39.07000000
   H     -4.43000000   -24.95000000    38.74000000
   H     -5.08000000   -24.23000000    40.23000000
   H     -3.41000000   -23.65000000    42.95000000
   H     -2.98000000   -21.94000000    42.63000000
   H     -4.39000000   -22.52000000    41.96000000
   N     -4.18000000   -27.77000000    40.01000000
   C     -5.33000000   -27.78000000    40.90000000
   C     -5.61000000   -29.12000000    41.58000000
   O     -6.53000000   -29.26000000    42.38000000
   C     -6.52000000   -27.39000000    40.03000000
   C     -6.76000000   -27.99000000    38.65000000
   O     -7.58000000   -27.38000000    37.93000000
   O     -6.30000000   -29.09000000    38.28000000
   H     -4.19000000   -28.51000000    39.33000000
   H     -5.25000000   -27.08000000    41.74000000
   H     -6.35000000   -26.32000000    39.97000000
   H     -7.43000000   -27.49000000    40.62000000
   N     -4.92000000   -30.19000000    41.19000000
   C     -4.66000000   -31.35000000    42.02000000
   C     -5.88000000   -32.27000000    42.10000000
   O     -6.47000000   -32.60000000    41.08000000
   H     -4.45000000   -30.16000000    40.30000000
   H     -4.28000000   -31.04000000    42.99000000
   H     -3.86000000   -31.91000000    41.56000000
   N     -6.13000000   -32.76000000    43.32000000
   C     -7.36000000   -33.46000000    43.61000000
   C     -8.27000000   -32.53000000    44.40000000
   O     -9.40000000   -32.93000000    44.68000000
   C     -6.98000000   -34.73000000    44.37000000
   C     -6.09000000   -34.37000000    45.55000000
   O     -4.90000000   -34.74000000    45.55000000
   O     -6.54000000   -33.78000000    46.56000000
   H     -5.57000000   -32.34000000    44.04000000
   H     -7.82000000   -33.72000000    42.65000000
   H     -6.39000000   -35.38000000    43.72000000
   H     -7.82000000   -35.34000000    44.71000000
   N     -7.88000000   -31.32000000    44.80000000
   C     -8.75000000   -30.43000000    45.54000000
   C     -9.11000000   -30.79000000    46.97000000
   O    -10.10000000   -30.30000000    47.50000000
   H     -6.95000000   -30.99000000    44.58000000
   H     -9.67000000   -30.40000000    44.96000000
   H     -8.24000000   -29.46000000    45.60000000
   N     -8.45000000   -31.80000000    47.55000000
   C     -8.64000000   -32.31000000    48.89000000
   C     -8.59000000   -31.28000000    50.01000000
   O     -9.42000000   -31.35000000    50.91000000
   C     -9.77000000   -33.33000000    48.95000000
   C     -9.59000000   -34.56000000    48.07000000
   C     -8.66000000   -35.65000000    48.59000000
   N     -7.34000000   -35.54000000    48.40000000
   O     -9.12000000   -36.48000000    49.36000000
   H     -7.77000000   -32.30000000    47.00000000
   H     -7.77000000   -32.93000000    49.13000000
   H    -10.66000000   -32.79000000    48.61000000
   H     -9.94000000   -33.64000000    49.98000000
   H     -9.32000000   -34.32000000    47.04000000
   H    -10.56000000   -35.04000000    48.01000000
   H     -6.92000000   -34.75000000    47.93000000
   H     -6.77000000   -36.37000000    48.50000000
   N     -7.72000000   -30.26000000    50.02000000
   C     -7.68000000   -29.19000000    51.00000000
   C     -6.28000000   -29.02000000    51.56000000
   O     -5.28000000   -29.00000000    50.84000000
   C     -8.29000000   -27.90000000    50.47000000
   C     -8.40000000   -26.81000000    51.54000000
   C     -7.44000000   -27.31000000    49.35000000
   H     -6.92000000   -30.32000000    49.41000000
   H     -8.15000000   -29.50000000    51.93000000
   H     -9.26000000   -28.18000000    50.07000000
   H     -8.84000000   -27.19000000    52.46000000
   H     -7.43000000   -26.37000000    51.76000000
   H     -9.13000000   -26.08000000    51.19000000
   H     -6.50000000   -26.91000000    49.75000000
   H     -7.23000000   -27.89000000    48.46000000
   H     -7.83000000   -26.34000000    49.04000000
   N     -6.14000000   -28.76000000    52.87000000
   C     -4.95000000   -28.74000000    53.70000000
   C     -4.41000000   -27.33000000    53.92000000
   O     -5.21000000   -26.40000000    53.85000000
   C     -5.24000000   -29.61000000    54.91000000
   C     -5.77000000   -31.03000000    54.81000000
   N     -6.02000000   -31.67000000    55.95000000
   O     -5.88000000   -31.65000000    53.75000000
   H     -7.01000000   -28.46000000    53.29000000
   H     -4.20000000   -29.25000000    53.09000000
   H     -5.99000000   -29.15000000    55.55000000
   H     -4.33000000   -29.73000000    55.51000000
   H     -5.78000000   -31.23000000    56.83000000
   H     -6.42000000   -32.59000000    55.95000000
   N     -3.16000000   -27.29000000    54.37000000
   C     -2.54000000   -26.06000000    54.82000000
   C     -1.08000000   -26.05000000    54.39000000
   O     -0.21000000   -25.62000000    55.14000000
   C     -2.82000000   -25.86000000    56.31000000
   C     -2.68000000   -24.48000000    56.89000000
   C     -3.80000000   -23.65000000    56.79000000
   C     -1.50000000   -24.06000000    57.51000000
   C     -3.70000000   -22.31000000    57.19000000
   C     -1.43000000   -22.74000000    57.97000000
   C     -2.50000000   -21.84000000    57.77000000
   O     -2.41000000   -20.61000000    58.34000000
   H     -2.74000000   -28.17000000    54.63000000
   H     -3.03000000   -25.30000000    54.21000000
   H     -2.16000000   -26.54000000    56.86000000
   H     -3.79000000   -26.27000000    56.58000000
   H     -4.68000000   -23.91000000    56.23000000
   H     -0.61000000   -24.68000000    57.53000000
   H     -4.52000000   -21.62000000    57.09000000
   H     -0.49000000   -22.41000000    58.37000000
   H     -1.67000000   -20.52000000    58.95000000
   N     -0.74000000   -26.55000000    53.20000000
   C      0.58000000   -26.92000000    52.74000000
   C      1.50000000   -25.72000000    52.57000000
   O      2.43000000   -25.47000000    53.33000000
   C      0.48000000   -27.86000000    51.54000000
   C      1.91000000   -28.32000000    51.25000000
   C      1.98000000   -29.49000000    50.28000000
   O      1.67000000   -30.60000000    50.77000000
   O      2.26000000   -29.33000000    49.07000000
   H     -1.51000000   -26.78000000    52.58000000
   H      1.05000000   -27.62000000    53.43000000
   H      0.03000000   -27.47000000    50.62000000
   H      0.06000000   -28.82000000    51.84000000
   H      2.42000000   -28.66000000    52.15000000
   H      2.44000000   -27.49000000    50.80000000
   N      1.29000000   -24.67000000    51.78000000
   C      0.25000000   -24.50000000    50.79000000
   C     -1.05000000   -23.97000000    51.38000000
   O     -1.14000000   -23.47000000    52.50000000
   C      0.75000000   -23.53000000    49.72000000
   C      2.17000000   -23.84000000    49.23000000
   C      2.31000000   -25.29000000    48.78000000
   O      1.35000000   -25.99000000    48.40000000
   O      3.44000000   -25.82000000    48.79000000
   H      1.84000000   -23.87000000    52.05000000
   H      0.10000000   -25.41000000    50.20000000
   H      0.73000000   -22.49000000    50.04000000
   H      0.09000000   -23.57000000    48.86000000
   H      2.88000000   -23.57000000    50.01000000
   H      2.41000000   -23.22000000    48.37000000
   N     -1.99000000   -23.82000000    50.45000000
   C     -3.25000000   -23.10000000    50.49000000
   H     -4.00900000   -23.72300000    50.96300000
   H     -3.12600000   -22.18100000    51.06300000
   H     -3.56200000   -22.85600000    49.47500000
   H     -1.88000000   -24.44000000    49.66000000
  Ca      2.69000000   -27.75800000    47.13000000
   O      3.62000000   -30.30800000    46.51000000
   H      3.54000000   -30.98800000    47.17000000
   H      3.23000000   -30.69800000    45.72000000
   O      4.71000000   -28.14800000    48.97000000
   H      5.65000000   -28.26800000    49.09000000
   H      4.46000000   -27.48800000    49.62000000
   O      5.05000000   -27.37800000    45.70000000
   H      5.35000000   -27.93800000    44.99000000
   H      5.73000000   -26.71800000    45.80000000

Ca 1.00



