%chk=loop2.holoCaM.run80.water1.chk
%nprocshared=20
%mem=10GB
%nosave
#b3lyp/svp scf=(tight,noincore,xqc) Test 
#IOP(5/87=12) Density=Current Pop=(MK,readradii) iop(6/33=2) iop(6/42=6)

loop2.holoCaM.run80.water1 

   -2  1 
   C     45.27000000    52.18000000    39.75000000
   C     45.02000000    51.06000000    40.75000000
   O     45.63000000    50.98000000    41.81000000
   H     46.29400000    52.11700000    39.38300000
   H     44.57800000    52.08200000    38.91300000
   H     45.11800000    53.14300000    40.23700000
   N     44.03000000    50.23000000    40.43000000
   C     43.56000000    49.21000000    41.34000000
   C     44.45000000    48.00000000    41.12000000
   O     44.36000000    47.35000000    40.08000000
   C     42.10000000    48.91000000    41.00000000
   C     41.52000000    47.72000000    41.74000000
   O     40.40000000    47.26000000    41.43000000
   O     42.12000000    47.31000000    42.77000000
   H     43.47000000    50.35000000    39.59000000
   H     43.58000000    49.61000000    42.36000000
   H     41.96000000    48.77000000    39.93000000
   H     41.55000000    49.81000000    41.30000000
   N     45.35000000    47.82000000    42.09000000
   C     46.48000000    46.92000000    42.04000000
   C     46.12000000    45.50000000    42.48000000
   O     46.89000000    44.58000000    42.19000000
   C     47.66000000    47.53000000    42.80000000
   H     45.16000000    48.29000000    42.97000000
   H     46.89000000    46.88000000    41.03000000
   H     47.35000000    47.95000000    43.75000000
   H     48.51000000    46.86000000    42.93000000
   H     47.93000000    48.37000000    42.15000000
   N     44.95000000    45.26000000    43.07000000
   C     44.40000000    43.92000000    43.17000000
   C     43.29000000    43.65000000    42.17000000
   O     42.81000000    42.52000000    42.05000000
   C     44.03000000    43.47000000    44.58000000
   C     43.39000000    44.53000000    45.47000000
   O     43.47000000    45.76000000    45.23000000
   O     42.85000000    44.15000000    46.53000000
   H     44.51000000    45.97000000    43.64000000
   H     45.24000000    43.31000000    42.83000000
   H     44.95000000    43.10000000    45.04000000
   H     43.38000000    42.60000000    44.51000000
   N     42.92000000    44.60000000    41.31000000
   C     41.93000000    44.39000000    40.27000000
   C     40.56000000    43.97000000    40.77000000
   O     39.90000000    43.10000000    40.21000000
   H     43.26000000    45.54000000    41.46000000
   H     42.06000000    43.74000000    39.40000000
   H     41.91000000    45.35000000    39.75000000
   N     40.19000000    44.45000000    41.97000000
   C     38.96000000    43.98000000    42.59000000
   C     37.83000000    44.96000000    42.31000000
   O     36.67000000    44.62000000    42.54000000
   C     39.11000000    43.82000000    44.10000000
   C     39.17000000    45.15000000    44.84000000
   N     38.14000000    45.42000000    45.64000000
   O     40.12000000    45.92000000    44.78000000
   H     40.65000000    45.25000000    42.38000000
   H     38.65000000    43.02000000    42.18000000
   H     39.92000000    43.16000000    44.43000000
   H     38.24000000    43.24000000    44.39000000
   H     37.30000000    44.89000000    45.44000000
   H     38.15000000    46.40000000    45.90000000
   N     38.01000000    46.19000000    41.82000000
   C     37.01000000    47.17000000    41.45000000
   C     36.65000000    48.26000000    42.45000000
   O     35.62000000    48.92000000    42.33000000
   H     38.97000000    46.47000000    41.70000000
   H     36.08000000    46.73000000    41.11000000
   H     37.47000000    47.76000000    40.65000000
   N     37.45000000    48.38000000    43.51000000
   C     37.32000000    49.33000000    44.59000000
   C     38.67000000    49.96000000    44.90000000
   O     39.64000000    49.20000000    44.93000000
   C     36.58000000    48.88000000    45.85000000
   C     35.21000000    48.25000000    45.63000000
   O     37.44000000    47.99000000    46.53000000
   H     38.28000000    47.81000000    43.57000000
   H     36.71000000    50.10000000    44.11000000
   H     36.43000000    49.77000000    46.46000000
   H     37.13000000    47.88000000    47.43000000
   H     35.19000000    47.23000000    45.27000000
   H     34.63000000    48.28000000    46.55000000
   H     34.62000000    48.83000000    44.91000000
   N     38.72000000    51.24000000    45.29000000
   C     39.98000000    51.89000000    45.59000000
   C     40.45000000    51.70000000    47.02000000
   O     39.75000000    52.09000000    47.95000000
   C     39.86000000    53.35000000    45.16000000
   C     39.58000000    53.60000000    43.68000000
   C     40.99000000    54.21000000    45.72000000
   C     40.77000000    53.22000000    42.81000000
   H     37.85000000    51.74000000    45.37000000
   H     40.73000000    51.38000000    44.99000000
   H     38.99000000    53.79000000    45.66000000
   H     39.39000000    54.66000000    43.50000000
   H     38.69000000    53.10000000    43.29000000
   H     41.91000000    53.69000000    45.46000000
   H     41.08000000    55.16000000    45.20000000
   H     40.83000000    54.28000000    46.80000000
   H     41.66000000    53.78000000    43.08000000
   H     41.01000000    52.15000000    42.86000000
   H     40.60000000    53.52000000    41.78000000
   N     41.68000000    51.21000000    47.16000000
   C     42.42000000    51.34000000    48.40000000
   C     43.27000000    52.61000000    48.46000000
   O     43.61000000    53.18000000    47.43000000
   C     43.30000000    50.10000000    48.54000000
   C     42.52000000    48.79000000    48.48000000
   O     42.76000000    47.96000000    47.58000000
   O     41.60000000    48.54000000    49.29000000
   H     42.24000000    51.02000000    46.34000000
   H     41.76000000    51.32000000    49.26000000
   H     43.81000000    50.09000000    49.50000000
   H     43.98000000    50.07000000    47.69000000
   N     43.76000000    52.94000000    49.65000000
   C     44.57000000    54.10000000    50.02000000
   C     45.88000000    54.32000000    49.29000000
   O     46.11000000    55.45000000    48.86000000
   C     44.68000000    54.07000000    51.54000000
   C     45.28000000    55.35000000    52.05000000
   C     44.49000000    56.50000000    52.06000000
   C     46.63000000    55.35000000    52.42000000
   C     45.13000000    57.73000000    52.25000000
   C     47.23000000    56.56000000    52.80000000
   C     46.48000000    57.73000000    52.63000000
   H     43.45000000    52.33000000    50.39000000
   H     43.96000000    54.99000000    49.85000000
   H     45.19000000    53.18000000    51.91000000
   H     43.68000000    53.93000000    51.94000000
   H     43.44000000    56.46000000    51.81000000
   H     47.16000000    54.41000000    52.54000000
   H     44.58000000    58.66000000    52.27000000
   H     48.28000000    56.54000000    53.04000000
   H     47.06000000    58.62000000    52.83000000
   N     46.74000000    53.36000000    48.94000000
   C     47.90000000    53.54000000    48.08000000
   C     47.47000000    53.67000000    46.63000000
   O     48.27000000    54.19000000    45.86000000
   C     48.79000000    52.35000000    48.43000000
   C     47.80000000    51.23000000    48.76000000
   C     46.66000000    52.00000000    49.42000000
   H     48.41000000    54.45000000    48.41000000
   H     49.47000000    52.00000000    47.65000000
   H     49.42000000    52.70000000    49.24000000
   H     47.45000000    50.71000000    47.87000000
   H     48.22000000    50.48000000    49.43000000
   H     45.68000000    51.58000000    49.22000000
   H     46.78000000    51.96000000    50.51000000
   N     46.29000000    53.22000000    46.18000000
   C     45.65000000    53.44000000    44.91000000
   C     45.22000000    54.90000000    44.79000000
   O     45.42000000    55.60000000    43.81000000
   C     44.57000000    52.40000000    44.64000000
   C     45.09000000    51.00000000    44.97000000
   C     44.09000000    49.86000000    44.89000000
   O     42.87000000    50.10000000    45.05000000
   O     44.47000000    48.67000000    44.89000000
   H     45.81000000    52.73000000    46.93000000
   H     46.36000000    53.29000000    44.09000000
   H     44.25000000    52.49000000    43.60000000
   H     43.65000000    52.62000000    45.19000000
   H     45.46000000    50.96000000    45.99000000
   H     45.99000000    50.79000000    44.38000000
   N     44.62000000    55.35000000    45.90000000
   C     44.30000000    56.75000000    46.04000000
   H     43.33900000    56.85400000    46.54400000
   H     45.07400000    57.24300000    46.62800000
   H     44.24400000    57.21100000    45.05400000
   H     44.55000000    54.79000000    46.74000000
  Ca     41.93000000    47.73000000    45.20000000
   O     40.07000000    47.41000000    47.23000000
   H     39.18000000    47.76000000    47.30000000
   H     40.47000000    47.62000000    48.07000000

Ca 1.00



