%chk=loop4.apoCaM-CA-Ng.Init295.run45.water2.chk
%nprocshared=20
%mem=10GB
%nosave
#b3lyp/svp scf=(tight,noincore,xqc) Test 
#IOP(5/87=12) Density=Current Pop=(MK,readradii) iop(6/33=2) iop(6/42=6)

loop4.apoCaM-CA-Ng.Init295.run45.water2 

   -3  1 
   C     72.63000000    25.53000000    57.63000000
   C     72.81000000    24.76000000    58.93000000
   O     73.93000000    24.58000000    59.39000000
   H     71.93900000    26.35700000    57.79100000
   H     73.59300000    25.92100000    57.30200000
   H     72.22800000    24.86500000    56.86600000
   N     71.68000000    24.45000000    59.58000000
   C     71.64000000    23.54000000    60.71000000
   C     72.54000000    23.88000000    61.89000000
   O     73.07000000    23.00000000    62.57000000
   C     71.70000000    22.07000000    60.32000000
   C     70.96000000    21.76000000    59.02000000
   O     71.58000000    21.47000000    57.98000000
   O     69.72000000    21.86000000    58.89000000
   H     70.82000000    24.62000000    59.09000000
   H     70.61000000    23.64000000    61.06000000
   H     71.21000000    21.46000000    61.08000000
   H     72.74000000    21.77000000    60.27000000
   N     72.80000000    25.18000000    62.03000000
   C     73.70000000    25.84000000    62.95000000
   C     73.10000000    25.67000000    64.34000000
   O     71.89000000    25.83000000    64.49000000
   C     73.92000000    27.30000000    62.54000000
   C     74.30000000    27.54000000    61.09000000
   C     74.83000000    27.98000000    63.56000000
   C     75.78000000    27.23000000    60.88000000
   H     72.25000000    25.74000000    61.39000000
   H     74.64000000    25.29000000    62.84000000
   H     73.01000000    27.88000000    62.68000000
   H     74.26000000    28.62000000    60.89000000
   H     73.64000000    26.96000000    60.44000000
   H     74.42000000    28.02000000    64.57000000
   H     75.87000000    27.66000000    63.62000000
   H     74.95000000    29.02000000    63.25000000
   H     76.10000000    27.43000000    59.85000000
   H     76.39000000    27.89000000    61.49000000
   H     75.97000000    26.17000000    61.05000000
   N     73.79000000    25.47000000    65.46000000
   C     75.22000000    25.27000000    65.60000000
   C     75.73000000    23.86000000    65.35000000
   O     76.85000000    23.67000000    64.89000000
   C     75.79000000    25.60000000    66.98000000
   C     75.22000000    26.87000000    67.62000000
   O     75.94000000    27.88000000    67.46000000
   O     74.12000000    26.92000000    68.20000000
   H     73.28000000    25.52000000    66.33000000
   H     75.64000000    26.01000000    64.92000000
   H     76.87000000    25.52000000    67.01000000
   H     75.44000000    24.77000000    67.59000000
   N     74.87000000    22.84000000    65.45000000
   C     75.09000000    21.47000000    65.04000000
   C     76.10000000    20.71000000    65.88000000
   O     76.38000000    21.18000000    66.98000000
   H     74.14000000    22.95000000    66.14000000
   H     75.47000000    21.48000000    64.02000000
   H     74.12000000    20.97000000    65.08000000
   N     76.72000000    19.70000000    65.27000000
   C     77.40000000    18.67000000    66.03000000
   C     78.79000000    18.30000000    65.53000000
   O     79.48000000    17.38000000    65.97000000
   C     76.47000000    17.47000000    66.18000000
   C     76.01000000    16.89000000    64.85000000
   O     74.84000000    16.44000000    64.79000000
   O     76.79000000    16.95000000    63.88000000
   H     76.48000000    19.40000000    64.34000000
   H     77.67000000    19.03000000    67.02000000
   H     75.62000000    17.74000000    66.81000000
   H     76.98000000    16.70000000    66.77000000
   N     79.24000000    18.97000000    64.47000000
   C     80.53000000    18.71000000    63.87000000
   C     80.59000000    17.52000000    62.92000000
   O     81.65000000    17.29000000    62.34000000
   H     78.70000000    19.73000000    64.08000000
   H     81.22000000    18.54000000    64.69000000
   H     80.92000000    19.58000000    63.35000000
   N     79.46000000    16.83000000    62.78000000
   C     79.21000000    15.77000000    61.82000000
   C     79.71000000    16.10000000    60.42000000
   O     80.76000000    15.65000000    59.97000000
   C     79.74000000    14.45000000    62.36000000
   C     78.98000000    13.96000000    63.59000000
   C     77.64000000    13.34000000    63.21000000
   N     76.63000000    14.19000000    63.01000000
   O     77.42000000    12.14000000    63.11000000
   H     78.75000000    17.09000000    63.45000000
   H     78.13000000    15.67000000    61.86000000
   H     80.80000000    14.50000000    62.61000000
   H     79.69000000    13.69000000    61.57000000
   H     78.84000000    14.77000000    64.31000000
   H     79.59000000    13.18000000    64.03000000
   H     76.78000000    15.18000000    63.18000000
   H     75.75000000    13.75000000    62.79000000
   N     78.87000000    16.65000000    59.54000000
   C     79.23000000    17.04000000    58.19000000
   C     78.45000000    16.22000000    57.17000000
   O     77.23000000    16.14000000    57.23000000
   C     79.04000000    18.54000000    57.96000000
   C     77.74000000    19.14000000    58.48000000
   C     80.17000000    19.26000000    58.71000000
   H     77.98000000    16.95000000    59.91000000
   H     80.29000000    16.86000000    58.01000000
   H     79.19000000    18.73000000    56.90000000
   H     77.73000000    20.19000000    58.17000000
   H     76.90000000    18.65000000    57.99000000
   H     77.71000000    19.06000000    59.57000000
   H     80.60000000    18.80000000    59.60000000
   H     81.01000000    19.40000000    58.03000000
   H     79.83000000    20.25000000    58.99000000
   N     79.16000000    15.63000000    56.20000000
   C     78.64000000    15.01000000    55.00000000
   C     77.90000000    15.98000000    54.09000000
   O     78.27000000    17.16000000    54.13000000
   C     79.81000000    14.33000000    54.29000000
   C     79.37000000    13.38000000    53.19000000
   N     80.27000000    13.20000000    52.22000000
   O     78.31000000    12.77000000    53.25000000
   H     80.15000000    15.84000000    56.21000000
   H     77.95000000    14.29000000    55.42000000
   H     80.33000000    13.71000000    55.03000000
   H     80.64000000    14.98000000    54.03000000
   H     81.13000000    13.72000000    52.30000000
   H     80.15000000    12.55000000    51.46000000
   N     76.88000000    15.60000000    53.32000000
   C     76.07000000    16.55000000    52.58000000
   C     74.60000000    16.42000000    52.94000000
   O     74.08000000    15.34000000    53.20000000
   C     76.28000000    16.30000000    51.09000000
   C     77.59000000    16.78000000    50.51000000
   C     78.65000000    15.87000000    50.58000000
   C     77.81000000    18.09000000    50.06000000
   C     79.94000000    16.24000000    50.18000000
   C     79.09000000    18.49000000    49.68000000
   C     80.16000000    17.57000000    49.77000000
   O     81.39000000    17.96000000    49.35000000
   H     76.54000000    14.66000000    53.40000000
   H     76.36000000    17.59000000    52.75000000
   H     75.44000000    16.75000000    50.56000000
   H     76.21000000    15.21000000    51.05000000
   H     78.43000000    14.85000000    50.86000000
   H     77.03000000    18.82000000    49.91000000
   H     80.79000000    15.58000000    50.23000000
   H     79.11000000    19.46000000    49.22000000
   H     81.50000000    18.91000000    49.22000000
   N     73.89000000    17.54000000    53.06000000
   C     72.46000000    17.53000000    53.30000000
   C     71.69000000    18.18000000    52.16000000
   O     70.87000000    17.56000000    51.49000000
   C     72.16000000    18.08000000    54.69000000
   C     70.63000000    18.14000000    54.76000000
   C     70.13000000    18.43000000    56.17000000
   O     69.27000000    19.33000000    56.27000000
   O     70.53000000    17.75000000    57.14000000
   H     74.29000000    18.37000000    52.64000000
   H     72.09000000    16.50000000    53.27000000
   H     72.68000000    19.02000000    54.89000000
   H     72.52000000    17.40000000    55.46000000
   H     70.24000000    17.18000000    54.41000000
   H     70.39000000    18.98000000    54.12000000
   N     71.94000000    19.45000000    51.84000000
   C     72.47000000    20.63000000    52.51000000
   C     73.97000000    20.69000000    52.23000000
   O     74.50000000    20.11000000    51.29000000
   C     71.88000000    21.96000000    52.06000000
   C     70.36000000    21.96000000    52.17000000
   C     69.84000000    21.69000000    53.58000000
   O     68.71000000    21.18000000    53.72000000
   O     70.64000000    21.78000000    54.53000000
   H     71.60000000    19.63000000    50.91000000
   H     72.35000000    20.48000000    53.58000000
   H     72.15000000    22.23000000    51.04000000
   H     72.29000000    22.76000000    52.69000000
   H     69.96000000    21.24000000    51.46000000
   H     69.98000000    22.95000000    51.91000000
   N     74.64000000    21.38000000    53.16000000
   C     75.99000000    21.92000000    53.11000000
   H     76.66100000    21.17900000    52.67700000
   H     75.99900000    22.82000000    52.49600000
   H     76.32200000    22.16400000    54.11900000
   H     74.12000000    21.84000000    53.89000000
  Ca     68.93000000    21.90000000    56.49000000
   O     67.57000000    23.66000000    57.89000000
   H     66.64000000    23.80000000    58.08000000
   H     68.02000000    23.91000000    58.70000000
   O     66.97000000    20.73000000    57.59000000
   H     66.65000000    20.99000000    58.45000000
   H     67.17000000    19.80000000    57.68000000

Ca 1.00



