%chk=loop2.apoCaM-CA-Ng.Init293.run91.water6.chk
%nprocshared=20
%mem=10GB
%nosave
#b3lyp/svp scf=(tight,noincore,xqc) Test 
#IOP(5/87=12) Density=Current Pop=(MK,readradii) iop(6/33=2) iop(6/42=6)

loop2.apoCaM-CA-Ng.Init293.run91.water6 

   -2  1 
   C     83.13000000   105.91000000    -3.21000000
   C     83.57000000   107.24000000    -2.62000000
   O     84.01000000   107.43000000    -1.49000000
   H     82.20900000   106.05100000    -3.77600000
   H     83.90800000   105.53100000    -3.87300000
   H     82.95600000   105.19500000    -2.40600000
   N     83.21000000   108.26000000    -3.41000000
   C     83.59000000   109.64000000    -3.21000000
   C     82.79000000   110.63000000    -4.04000000
   O     81.79000000   111.15000000    -3.55000000
   C     85.09000000   109.88000000    -3.39000000
   C     85.53000000   111.28000000    -2.97000000
   O     85.18000000   111.75000000    -1.87000000
   O     86.38000000   111.86000000    -3.68000000
   H     82.74000000   107.96000000    -4.25000000
   H     83.39000000   109.84000000    -2.15000000
   H     85.36000000   109.72000000    -4.43000000
   H     85.63000000   109.12000000    -2.83000000
   N     83.06000000   110.74000000    -5.34000000
   C     82.42000000   111.60000000    -6.31000000
   C     80.89000000   111.59000000    -6.30000000
   O     80.27000000   112.64000000    -6.39000000
   C     83.06000000   112.97000000    -6.16000000
   H     83.89000000   110.22000000    -5.63000000
   H     82.73000000   111.06000000    -7.20000000
   H     82.43000000   113.66000000    -5.60000000
   H     84.05000000   112.92000000    -5.70000000
   H     83.17000000   113.41000000    -7.16000000
   N     80.28000000   110.44000000    -6.02000000
   C     78.89000000   110.20000000    -5.71000000
   C     78.18000000   111.12000000    -4.72000000
   O     76.97000000   111.31000000    -4.80000000
   C     78.14000000   110.03000000    -7.03000000
   C     78.80000000   109.10000000    -8.05000000
   O     79.38000000   109.67000000    -9.00000000
   O     78.88000000   107.89000000    -7.76000000
   H     80.85000000   109.61000000    -5.88000000
   H     78.82000000   109.21000000    -5.26000000
   H     78.04000000   110.97000000    -7.57000000
   H     77.15000000   109.59000000    -6.89000000
   N     78.86000000   111.71000000    -3.73000000
   C     78.32000000   112.65000000    -2.77000000
   C     77.25000000   111.87000000    -2.03000000
   O     77.44000000   110.71000000    -1.66000000
   H     79.86000000   111.72000000    -3.63000000
   H     77.91000000   113.41000000    -3.43000000
   H     79.14000000   113.00000000    -2.14000000
   N     76.12000000   112.48000000    -1.68000000
   C     74.95000000   111.87000000    -1.10000000
   C     75.22000000   110.94000000     0.08000000
   O     74.61000000   109.88000000     0.11000000
   C     74.04000000   111.36000000    -2.22000000
   C     73.69000000   112.34000000    -3.33000000
   N     74.35000000   112.28000000    -4.49000000
   O     72.82000000   113.19000000    -3.17000000
   H     76.12000000   113.47000000    -1.90000000
   H     74.47000000   112.74000000    -0.64000000
   H     73.08000000   110.98000000    -1.85000000
   H     74.53000000   110.58000000    -2.79000000
   H     75.30000000   111.94000000    -4.47000000
   H     73.99000000   112.80000000    -5.28000000
   N     76.09000000   111.34000000     1.01000000
   C     76.40000000   110.60000000     2.21000000
   C     77.35000000   109.44000000     1.94000000
   O     77.60000000   108.82000000     2.97000000
   H     76.35000000   112.32000000     0.97000000
   H     75.49000000   110.27000000     2.71000000
   H     76.85000000   111.33000000     2.89000000
   N     77.94000000   109.26000000     0.75000000
   C     78.84000000   108.17000000     0.44000000
   C     78.15000000   106.96000000    -0.17000000
   O     77.12000000   107.12000000    -0.83000000
   C     79.87000000   108.65000000    -0.58000000
   C     80.79000000   109.81000000    -0.20000000
   O     80.68000000   107.58000000    -1.00000000
   H     77.67000000   109.86000000    -0.01000000
   H     79.39000000   107.84000000     1.33000000
   H     79.31000000   109.02000000    -1.44000000
   H     81.05000000   107.25000000    -0.17000000
   H     81.53000000   109.44000000     0.51000000
   H     81.26000000   110.23000000    -1.09000000
   H     80.22000000   110.66000000     0.17000000
   N     78.71000000   105.80000000     0.19000000
   C     78.16000000   104.51000000    -0.15000000
   C     78.06000000   104.32000000    -1.66000000
   O     78.99000000   104.60000000    -2.41000000
   C     78.95000000   103.34000000     0.43000000
   C     80.46000000   103.41000000     0.28000000
   C     78.49000000   103.22000000     1.88000000
   C     81.25000000   102.37000000     1.06000000
   H     79.45000000   105.74000000     0.89000000
   H     77.14000000   104.41000000     0.21000000
   H     78.52000000   102.43000000     0.00000000
   H     80.77000000   104.43000000     0.53000000
   H     80.60000000   103.20000000    -0.78000000
   H     77.40000000   103.21000000     1.92000000
   H     78.86000000   102.36000000     2.45000000
   H     78.79000000   104.09000000     2.47000000
   H     81.01000000   102.54000000     2.12000000
   H     81.01000000   101.36000000     0.73000000
   H     82.28000000   102.65000000     0.88000000
   N     76.88000000   103.87000000    -2.11000000
   C     76.67000000   103.68000000    -3.53000000
   C     75.18000000   103.95000000    -3.68000000
   O     74.34000000   103.10000000    -3.96000000
   C     77.08000000   102.28000000    -3.96000000
   C     76.87000000   102.02000000    -5.44000000
   O     76.60000000   102.97000000    -6.22000000
   O     77.14000000   100.87000000    -5.83000000
   H     76.21000000   103.64000000    -1.40000000
   H     77.14000000   104.46000000    -4.13000000
   H     76.65000000   101.49000000    -3.33000000
   H     78.13000000   102.31000000    -3.67000000
   N     74.79000000   105.19000000    -3.35000000
   C     73.49000000   105.80000000    -3.50000000
   C     72.70000000   106.20000000    -2.26000000
   O     71.61000000   106.75000000    -2.37000000
   C     73.69000000   107.07000000    -4.32000000
   C     72.59000000   107.56000000    -5.23000000
   C     71.91000000   108.78000000    -5.13000000
   C     72.19000000   106.64000000    -6.21000000
   C     70.93000000   109.07000000    -6.09000000
   C     71.10000000   106.87000000    -7.05000000
   C     70.48000000   108.13000000    -7.02000000
   H     75.45000000   105.87000000    -3.01000000
   H     72.82000000   105.11000000    -4.01000000
   H     74.54000000   106.90000000    -4.99000000
   H     74.08000000   107.82000000    -3.63000000
   H     72.16000000   109.45000000    -4.33000000
   H     72.70000000   105.69000000    -6.25000000
   H     70.39000000   110.01000000    -6.07000000
   H     70.74000000   106.04000000    -7.65000000
   H     69.64000000   108.30000000    -7.67000000
   N     73.15000000   106.06000000    -1.01000000
   C     74.08000000   105.12000000    -0.42000000
   C     73.66000000   103.68000000    -0.65000000
   O     74.51000000   102.79000000    -0.64000000
   C     74.11000000   105.33000000     1.09000000
   C     73.90000000   106.84000000     1.00000000
   C     72.78000000   107.05000000    -0.01000000
   H     75.09000000   105.27000000    -0.82000000
   H     73.39000000   104.86000000     1.74000000
   H     75.12000000   105.23000000     1.49000000
   H     73.63000000   107.14000000     2.01000000
   H     74.85000000   107.26000000     0.65000000
   H     71.82000000   106.75000000     0.41000000
   H     72.86000000   108.04000000    -0.46000000
   N     72.37000000   103.33000000    -0.61000000
   C     71.80000000   102.00000000    -0.54000000
   C     72.30000000   101.07000000     0.56000000
   O     72.70000000    99.92000000     0.42000000
   C     71.74000000   101.40000000    -1.94000000
   C     70.79000000   102.10000000    -2.91000000
   C     69.30000000   101.96000000    -2.64000000
   O     68.54000000   101.55000000    -3.54000000
   O     68.89000000   102.26000000    -1.50000000
   H     71.73000000   104.10000000    -0.51000000
   H     70.77000000   102.15000000    -0.22000000
   H     71.51000000   100.34000000    -2.01000000
   H     72.77000000   101.52000000    -2.30000000
   H     71.07000000   101.70000000    -3.89000000
   H     71.04000000   103.15000000    -3.00000000
   N     72.19000000   101.61000000     1.78000000
   C     72.63000000   100.97000000     3.00000000
   H     73.50700000   101.48900000     3.38600000
   H     71.83100000   101.00900000     3.74000000
   H     72.88500000    99.93000000     2.79400000
   H     71.78000000   102.53000000     1.87000000
  Ca     79.71000000   106.17300000    -9.53300000
   O     79.48000000   107.83300000   -11.72300000
   H     79.66000000   107.56300000   -12.62300000
   H     79.19000000   108.74300000   -11.79300000
   O     81.67000000   108.27300000    -9.21300000
   H     81.18000000   109.06300000    -9.45300000
   H     82.48000000   108.60300000    -8.82300000
   O     78.38000000   104.48300000    -7.80300000
   H     77.61000000   104.09300000    -7.39300000
   H     79.01000000   104.58300000    -7.08300000
   O     77.12000000   106.58300000   -10.23300000
   H     76.49000000   106.47300000    -9.52300000
   H     76.63000000   107.03300000   -10.92300000
   O     78.58000000   104.13300000   -10.77300000
   H     78.51000000   103.34300000   -10.25300000
   H     78.16000000   103.91300000   -11.61300000
   O     81.38000000   105.48300000   -11.48300000
   H     80.87000000   105.03300000   -12.16300000
   H     82.12000000   105.86300000   -11.95300000

Ca 1.00



