%chk=loop2.holoCaM.run24.water2.chk
%nprocshared=20
%mem=10GB
%nosave
#b3lyp/svp scf=(tight,noincore,xqc) Test 
#IOP(5/87=12) Density=Current Pop=(MK,readradii) iop(6/33=2) iop(6/42=6)

loop2.holoCaM.run24.water2 

   -2  1 
   C     50.96000000    53.20000000     8.78000000
   C     49.71000000    53.83000000     9.37000000
   O     49.19000000    53.53000000    10.44000000
   H     51.78300000    53.29600000     9.48800000
   H     50.77600000    52.14500000     8.57900000
   H     51.21900000    53.70700000     7.85100000
   N     49.16000000    54.86000000     8.72000000
   C     47.86000000    55.43000000     8.99000000
   C     46.74000000    54.39000000     8.92000000
   O     46.42000000    53.92000000     7.83000000
   C     47.54000000    56.50000000     7.95000000
   C     46.29000000    57.34000000     8.17000000
   O     45.78000000    57.23000000     9.30000000
   O     45.94000000    58.12000000     7.25000000
   H     49.65000000    55.11000000     7.87000000
   H     47.81000000    55.81000000    10.01000000
   H     47.53000000    56.10000000     6.94000000
   H     48.38000000    57.20000000     7.99000000
   N     46.23000000    53.93000000    10.07000000
   C     45.34000000    52.79000000    10.15000000
   C     43.88000000    53.06000000     9.82000000
   O     43.27000000    52.29000000     9.08000000
   C     45.55000000    52.16000000    11.53000000
   H     46.39000000    54.44000000    10.92000000
   H     45.65000000    52.06000000     9.40000000
   H     44.87000000    51.31000000    11.59000000
   H     46.54000000    51.69000000    11.52000000
   H     45.41000000    52.84000000    12.36000000
   N     43.32000000    54.20000000    10.21000000
   C     42.01000000    54.67000000     9.79000000
   C     42.01000000    55.58000000     8.56000000
   O     40.98000000    56.11000000     8.15000000
   C     41.41000000    55.39000000    10.99000000
   C     42.19000000    56.56000000    11.58000000
   O     43.41000000    56.71000000    11.40000000
   O     41.55000000    57.36000000    12.29000000
   H     43.87000000    54.90000000    10.68000000
   H     41.43000000    53.79000000     9.51000000
   H     41.33000000    54.63000000    11.77000000
   H     40.38000000    55.62000000    10.70000000
   N     43.14000000    55.80000000     7.89000000
   C     43.21000000    56.30000000     6.53000000
   C     42.71000000    57.72000000     6.33000000
   O     41.86000000    57.96000000     5.48000000
   H     44.06000000    55.54000000     8.20000000
   H     42.60000000    55.63000000     5.91000000
   H     44.23000000    56.19000000     6.17000000
   N     43.26000000    58.73000000     7.01000000
   C     42.63000000    60.03000000     7.21000000
   C     43.53000000    61.13000000     6.66000000
   O     43.03000000    62.22000000     6.41000000
   C     42.47000000    60.16000000     8.72000000
   C     43.68000000    60.76000000     9.41000000
   N     43.66000000    62.02000000     9.85000000
   O     44.71000000    60.13000000     9.65000000
   H     44.18000000    58.54000000     7.35000000
   H     41.63000000    60.05000000     6.78000000
   H     42.34000000    59.16000000     9.14000000
   H     41.58000000    60.77000000     8.87000000
   H     42.81000000    62.53000000     9.66000000
   H     44.57000000    62.43000000    10.01000000
   N     44.84000000    60.89000000     6.55000000
   C     45.82000000    61.86000000     6.10000000
   C     46.91000000    62.32000000     7.05000000
   O     47.76000000    63.10000000     6.63000000
   H     45.15000000    59.95000000     6.76000000
   H     45.22000000    62.72000000     5.80000000
   H     46.29000000    61.59000000     5.16000000
   N     46.95000000    61.88000000     8.31000000
   C     47.87000000    62.28000000     9.37000000
   C     48.22000000    61.10000000    10.26000000
   O     47.36000000    60.25000000    10.49000000
   C     47.41000000    63.48000000    10.19000000
   C     47.55000000    64.83000000     9.50000000
   O     46.04000000    63.35000000    10.52000000
   H     46.23000000    61.23000000     8.58000000
   H     48.77000000    62.48000000     8.79000000
   H     47.96000000    63.52000000    11.13000000
   H     46.03000000    62.84000000    11.34000000
   H     46.66000000    65.07000000     8.92000000
   H     47.65000000    65.62000000    10.25000000
   H     48.45000000    64.88000000     8.89000000
   N     49.46000000    61.15000000    10.75000000
   C     49.98000000    60.18000000    11.69000000
   C     49.55000000    60.52000000    13.11000000
   O     49.68000000    61.64000000    13.60000000
   C     51.47000000    59.92000000    11.49000000
   C     51.68000000    59.08000000    10.23000000
   C     52.06000000    59.06000000    12.61000000
   C     53.09000000    58.85000000     9.70000000
   H     50.04000000    61.94000000    10.54000000
   H     49.48000000    59.23000000    11.50000000
   H     51.96000000    60.89000000    11.40000000
   H     51.19000000    59.59000000     9.41000000
   H     51.22000000    58.09000000    10.33000000
   H     51.58000000    58.08000000    12.61000000
   H     53.14000000    58.98000000    12.53000000
   H     51.86000000    59.54000000    13.57000000
   H     53.66000000    58.13000000    10.29000000
   H     53.03000000    58.48000000     8.68000000
   H     53.75000000    59.72000000     9.64000000
   N     49.11000000    59.51000000    13.87000000
   C     48.92000000    59.34000000    15.29000000
   C     50.00000000    58.54000000    16.01000000
   O     50.80000000    57.83000000    15.41000000
   C     47.54000000    58.75000000    15.61000000
   C     46.33000000    59.33000000    14.89000000
   O     45.67000000    58.69000000    14.05000000
   O     46.01000000    60.52000000    15.10000000
   H     48.79000000    58.68000000    13.39000000
   H     48.91000000    60.35000000    15.69000000
   H     47.33000000    58.95000000    16.66000000
   H     47.49000000    57.67000000    15.51000000
   N     50.00000000    58.48000000    17.34000000
   C     51.04000000    57.74000000    18.04000000
   C     50.95000000    56.22000000    18.03000000
   O     51.99000000    55.62000000    17.78000000
   C     51.12000000    58.35000000    19.44000000
   C     52.31000000    57.95000000    20.28000000
   C     53.63000000    58.14000000    19.84000000
   C     52.11000000    57.22000000    21.46000000
   C     54.73000000    57.73000000    20.58000000
   C     53.22000000    56.79000000    22.19000000
   C     54.54000000    57.01000000    21.77000000
   H     49.28000000    59.05000000    17.75000000
   H     52.03000000    57.95000000    17.64000000
   H     50.21000000    57.99000000    19.93000000
   H     51.15000000    59.44000000    19.47000000
   H     53.83000000    58.77000000    18.98000000
   H     51.11000000    57.03000000    21.81000000
   H     55.74000000    58.06000000    20.37000000
   H     53.01000000    56.37000000    23.17000000
   H     55.41000000    56.65000000    22.31000000
   N     49.74000000    55.65000000    17.97000000
   C     49.48000000    54.29000000    17.55000000
   C     49.86000000    53.93000000    16.13000000
   O     49.82000000    52.74000000    15.79000000
   C     47.97000000    54.06000000    17.62000000
   C     47.56000000    55.06000000    18.69000000
   C     48.47000000    56.24000000    18.36000000
   H     49.92000000    53.60000000    18.27000000
   H     47.54000000    54.28000000    16.64000000
   H     47.68000000    53.05000000    17.92000000
   H     46.49000000    55.31000000    18.69000000
   H     47.83000000    54.64000000    19.65000000
   H     47.97000000    56.72000000    17.51000000
   H     48.59000000    56.95000000    19.17000000
   N     50.41000000    54.85000000    15.33000000
   C     50.77000000    54.65000000    13.94000000
   C     52.23000000    55.02000000    13.76000000
   O     53.00000000    54.33000000    13.09000000
   C     49.90000000    55.53000000    13.05000000
   C     48.41000000    55.25000000    13.12000000
   C     47.46000000    56.23000000    12.45000000
   O     47.78000000    57.42000000    12.22000000
   O     46.31000000    55.90000000    12.10000000
   H     50.50000000    55.79000000    15.68000000
   H     50.56000000    53.64000000    13.59000000
   H     50.25000000    55.44000000    12.02000000
   H     50.03000000    56.60000000    13.21000000
   H     48.20000000    55.30000000    14.19000000
   H     48.13000000    54.25000000    12.79000000
   N     52.80000000    55.97000000    14.50000000
   C     54.22000000    56.29000000    14.56000000
   H     54.76600000    55.64800000    13.86900000
   H     54.37000000    57.33300000    14.28100000
   H     54.58700000    56.12800000    15.57300000
   H     52.23000000    56.56000000    15.09000000
  Ca     45.52000000    58.34000000    11.49000000
   O     43.20000000    59.49000000    12.22000000
   H     42.64000000    60.27000000    12.22000000
   H     42.59000000    58.77000000    12.08000000
   O     45.57000000    61.41000000    12.49000000
   H     45.63000000    61.07000000    13.39000000
   H     44.66000000    61.67000000    12.39000000

Ca 1.00



