%chk=loop2.holoCaM.run15.water1.chk
%nprocshared=20
%mem=10GB
%nosave
#b3lyp/svp scf=(tight,noincore,xqc) Test 
#IOP(5/87=12) Density=Current Pop=(MK,readradii) iop(6/33=2) iop(6/42=6)

loop2.holoCaM.run15.water1 

   -2  1 
   C     42.45000000    42.88000000    10.92000000
   C     41.33000000    43.68000000    10.28000000
   O     41.20000000    44.81000000    10.75000000
   H     43.29700000    43.53700000    11.11800000
   H     42.09900000    42.44800000    11.85700000
   H     42.76000000    42.08300000    10.24500000
   N     40.56000000    43.22000000     9.29000000
   C     39.49000000    43.94000000     8.63000000
   C     38.48000000    44.51000000     9.62000000
   O     37.93000000    43.82000000    10.47000000
   C     38.89000000    42.93000000     7.65000000
   C     37.59000000    43.35000000     6.98000000
   O     37.32000000    44.57000000     7.00000000
   O     36.93000000    42.56000000     6.27000000
   H     40.84000000    42.32000000     8.92000000
   H     39.89000000    44.81000000     8.12000000
   H     38.70000000    42.02000000     8.21000000
   H     39.59000000    42.57000000     6.89000000
   N     38.18000000    45.81000000     9.51000000
   C     37.57000000    46.60000000    10.57000000
   C     36.18000000    47.16000000    10.31000000
   O     35.53000000    47.75000000    11.16000000
   C     38.64000000    47.67000000    10.74000000
   H     38.46000000    46.31000000     8.69000000
   H     37.56000000    45.97000000    11.46000000
   H     39.57000000    47.12000000    10.85000000
   H     38.74000000    48.29000000     9.85000000
   H     38.43000000    48.35000000    11.57000000
   N     35.68000000    46.83000000     9.11000000
   C     34.28000000    47.03000000     8.80000000
   C     33.74000000    45.69000000     8.31000000
   O     32.55000000    45.49000000     8.08000000
   C     34.13000000    48.15000000     7.79000000
   C     34.75000000    47.99000000     6.41000000
   O     34.34000000    48.84000000     5.59000000
   O     35.54000000    47.05000000     6.18000000
   H     36.29000000    46.39000000     8.44000000
   H     33.70000000    47.23000000     9.70000000
   H     34.48000000    49.09000000     8.23000000
   H     33.06000000    48.32000000     7.67000000
   N     34.56000000    44.64000000     8.24000000
   C     34.17000000    43.25000000     8.10000000
   C     33.65000000    42.75000000     6.76000000
   O     32.80000000    41.87000000     6.61000000
   H     35.53000000    44.73000000     8.47000000
   H     33.45000000    43.01000000     8.88000000
   H     35.09000000    42.72000000     8.34000000
   N     34.16000000    43.43000000     5.73000000
   C     33.63000000    43.33000000     4.39000000
   C     34.31000000    42.32000000     3.47000000
   O     33.82000000    42.07000000     2.37000000
   C     33.76000000    44.73000000     3.80000000
   C     35.14000000    44.92000000     3.19000000
   N     35.29000000    45.06000000     1.87000000
   O     36.15000000    44.80000000     3.89000000
   H     34.97000000    44.03000000     5.84000000
   H     32.60000000    43.00000000     4.52000000
   H     33.58000000    45.50000000     4.55000000
   H     33.02000000    44.83000000     3.00000000
   H     34.47000000    45.14000000     1.29000000
   H     36.24000000    45.04000000     1.54000000
   N     35.44000000    41.73000000     3.86000000
   C     36.24000000    40.75000000     3.15000000
   C     37.49000000    41.32000000     2.51000000
   O     38.14000000    40.48000000     1.89000000
   H     35.83000000    42.19000000     4.67000000
   H     35.57000000    40.40000000     2.36000000
   H     36.54000000    39.92000000     3.79000000
   N     37.85000000    42.60000000     2.59000000
   C     39.06000000    43.10000000     1.96000000
   C     39.82000000    44.23000000     2.63000000
   O     39.24000000    44.92000000     3.47000000
   C     38.68000000    43.65000000     0.59000000
   C     38.12000000    42.72000000    -0.49000000
   O     37.72000000    44.68000000     0.62000000
   H     37.20000000    43.22000000     3.06000000
   H     39.71000000    42.24000000     1.80000000
   H     39.60000000    44.09000000     0.22000000
   H     37.58000000    45.07000000    -0.24000000
   H     38.81000000    41.92000000    -0.74000000
   H     37.11000000    42.38000000    -0.27000000
   H     38.02000000    43.29000000    -1.42000000
   N     41.13000000    44.30000000     2.37000000
   C     42.07000000    45.09000000     3.14000000
   C     42.11000000    46.50000000     2.56000000
   O     42.59000000    46.69000000     1.44000000
   C     43.46000000    44.48000000     3.02000000
   C     43.57000000    43.02000000     3.45000000
   C     44.60000000    45.30000000     3.62000000
   C     43.28000000    42.79000000     4.93000000
   H     41.60000000    43.72000000     1.70000000
   H     41.76000000    45.13000000     4.19000000
   H     43.66000000    44.43000000     1.95000000
   H     44.59000000    42.72000000     3.20000000
   H     43.01000000    42.37000000     2.78000000
   H     45.56000000    44.86000000     3.35000000
   H     44.68000000    46.33000000     3.27000000
   H     44.56000000    45.35000000     4.70000000
   H     44.09000000    43.31000000     5.44000000
   H     42.38000000    43.26000000     5.32000000
   H     43.42000000    41.72000000     5.14000000
   N     41.69000000    47.48000000     3.36000000
   C     41.98000000    48.87000000     3.08000000
   C     43.37000000    49.24000000     3.55000000
   O     43.93000000    48.51000000     4.37000000
   C     40.90000000    49.75000000     3.72000000
   C     39.52000000    49.17000000     3.46000000
   O     39.01000000    48.43000000     4.32000000
   O     38.89000000    49.49000000     2.42000000
   H     41.33000000    47.20000000     4.27000000
   H     41.94000000    49.05000000     2.00000000
   H     40.92000000    50.74000000     3.28000000
   H     41.19000000    49.72000000     4.77000000
   N     43.88000000    50.43000000     3.21000000
   C     45.19000000    50.84000000     3.67000000
   C     45.45000000    50.93000000     5.16000000
   O     46.52000000    50.46000000     5.54000000
   C     45.78000000    52.00000000     2.88000000
   C     47.21000000    52.34000000     3.23000000
   C     48.33000000    51.82000000     2.55000000
   C     47.47000000    53.31000000     4.20000000
   C     49.62000000    52.10000000     3.03000000
   C     48.75000000    53.70000000     4.62000000
   C     49.83000000    52.98000000     4.09000000
   H     43.36000000    51.03000000     2.60000000
   H     45.78000000    49.98000000     3.32000000
   H     45.13000000    52.88000000     2.92000000
   H     45.69000000    51.82000000     1.81000000
   H     48.12000000    51.01000000     1.87000000
   H     46.60000000    53.70000000     4.71000000
   H     50.48000000    51.60000000     2.61000000
   H     48.80000000    54.46000000     5.38000000
   H     50.84000000    53.23000000     4.39000000
   N     44.51000000    51.38000000     6.00000000
   C     44.71000000    51.31000000     7.43000000
   C     44.77000000    49.90000000     8.01000000
   O     45.38000000    49.74000000     9.06000000
   C     43.54000000    52.06000000     8.07000000
   C     43.34000000    53.14000000     7.01000000
   C     43.43000000    52.30000000     5.73000000
   H     45.59000000    51.86000000     7.75000000
   H     42.63000000    51.49000000     8.20000000
   H     43.81000000    52.53000000     9.02000000
   H     42.40000000    53.66000000     7.18000000
   H     44.14000000    53.87000000     7.06000000
   H     42.50000000    51.75000000     5.58000000
   H     43.63000000    52.83000000     4.80000000
   N     44.11000000    48.95000000     7.35000000
   C     44.09000000    47.55000000     7.72000000
   C     45.40000000    46.91000000     7.28000000
   O     45.90000000    45.95000000     7.85000000
   C     42.77000000    46.94000000     7.25000000
   C     41.47000000    47.59000000     7.72000000
   C     40.27000000    47.07000000     6.95000000
   O     40.44000000    46.45000000     5.87000000
   O     39.11000000    47.22000000     7.38000000
   H     43.83000000    49.17000000     6.40000000
   H     44.02000000    47.42000000     8.80000000
   H     42.80000000    45.86000000     7.42000000
   H     42.83000000    47.11000000     6.18000000
   H     41.58000000    48.66000000     7.53000000
   H     41.33000000    47.38000000     8.78000000
   N     46.10000000    47.57000000     6.34000000
   C     47.38000000    47.08000000     5.87000000
   H     48.13500000    47.24200000     6.63900000
   H     47.30500000    46.01400000     5.65400000
   H     47.66400000    47.61500000     4.96400000
   H     45.86000000    48.49000000     6.01000000
  Ca     37.82000000    46.29000000     5.26000000
   O     37.05000000    47.49000000     2.79000000
   H     36.76000000    47.62000000     1.89000000
   H     37.71000000    48.17000000     2.93000000

Ca 1.00



