%chk=loop1.apoCaM-CA-Ng.Init31.run82.water4.chk
%nprocshared=20
%mem=10GB
%nosave
#b3lyp/svp scf=(tight,noincore,xqc) Test 
#IOP(5/87=12) Density=Current Pop=(MK,readradii) iop(6/33=2) iop(6/42=6)

loop1.apoCaM-CA-Ng.Init31.run82.water4 

   0  1 
   C     54.16000000    38.26000000    26.53000000
   C     54.05000000    37.81000000    25.08000000
   O     53.02000000    38.03000000    24.44000000
   H     54.63800000    39.23900000    26.57100000
   H     53.16400000    38.32400000    26.96800000
   H     54.75800000    37.54100000    27.09000000
   N     55.08000000    37.21000000    24.48000000
   C     55.07000000    36.58000000    23.18000000
   C     54.48000000    35.18000000    23.17000000
   O     54.03000000    34.68000000    24.20000000
   C     56.51000000    36.56000000    22.67000000
   C     56.71000000    36.60000000    21.16000000
   O     55.74000000    36.33000000    20.42000000
   O     57.82000000    36.67000000    20.59000000
   H     55.81000000    37.00000000    25.15000000
   H     54.48000000    37.22000000    22.52000000
   H     57.01000000    35.66000000    23.02000000
   H     56.96000000    37.47000000    23.08000000
   N     54.45000000    34.51000000    22.02000000
   C     53.90000000    33.19000000    21.77000000
   C     54.86000000    32.06000000    22.10000000
   O     54.44000000    30.96000000    22.44000000
   C     53.44000000    33.05000000    20.32000000
   C     52.24000000    33.85000000    19.81000000
   C     52.26000000    35.37000000    19.96000000
   C     50.96000000    35.95000000    19.41000000
   N     51.19000000    37.39000000    19.22000000
   H     54.73000000    35.02000000    21.19000000
   H     53.09000000    33.08000000    22.49000000
   H     53.34000000    31.98000000    20.15000000
   H     54.24000000    33.48000000    19.72000000
   H     51.38000000    33.47000000    20.38000000
   H     51.96000000    33.65000000    18.78000000
   H     53.14000000    35.69000000    19.41000000
   H     52.35000000    35.57000000    21.03000000
   H     50.17000000    35.81000000    20.15000000
   H     50.73000000    35.44000000    18.48000000
   H     50.60000000    38.02000000    19.76000000
   H     52.10000000    37.77000000    19.44000000
   H     51.02000000    37.60000000    18.24000000
   N     56.20000000    32.10000000    22.12000000
   C     57.13000000    32.95000000    21.42000000
   C     58.41000000    33.21000000    22.20000000
   O     58.68000000    32.52000000    23.19000000
   C     57.41000000    32.20000000    20.13000000
   C     58.27000000    33.00000000    19.16000000
   O     57.78000000    34.09000000    18.81000000
   O     59.27000000    32.50000000    18.62000000
   H     56.57000000    31.27000000    22.56000000
   H     56.63000000    33.89000000    21.19000000
   H     56.45000000    32.04000000    19.64000000
   H     57.88000000    31.24000000    20.35000000
   N     59.04000000    34.31000000    21.79000000
   C     60.38000000    34.73000000    22.14000000
   C     60.66000000    36.19000000    21.82000000
   O     60.46000000    37.05000000    22.68000000
   H     58.63000000    34.78000000    20.99000000
   H     61.06000000    34.05000000    21.64000000
   H     60.30000000    34.59000000    23.22000000
   N     61.20000000    36.53000000    20.65000000
   C     61.62000000    37.82000000    20.16000000
   C     63.14000000    37.93000000    20.19000000
   O     63.86000000    36.93000000    20.11000000
   C     61.15000000    38.18000000    18.76000000
   C     59.77000000    37.66000000    18.36000000
   O     58.73000000    38.30000000    18.60000000
   O     59.75000000    36.65000000    17.63000000
   H     61.29000000    35.76000000    20.00000000
   H     61.33000000    38.65000000    20.81000000
   H     61.86000000    37.83000000    18.01000000
   H     60.99000000    39.26000000    18.75000000
   N     63.72000000    39.12000000    20.37000000
   C     63.19000000    40.46000000    20.22000000
   C     63.18000000    41.09000000    18.84000000
   O     62.53000000    42.11000000    18.65000000
   H     64.69000000    39.12000000    20.62000000
   H     63.84000000    41.09000000    20.83000000
   H     62.17000000    40.40000000    20.62000000
   N     63.86000000    40.52000000    17.83000000
   C     64.23000000    41.28000000    16.65000000
   C     64.98000000    42.58000000    16.94000000
   O     64.63000000    43.70000000    16.58000000
   C     63.10000000    41.40000000    15.63000000
   C     62.24000000    40.14000000    15.46000000
   O     63.34000000    41.89000000    14.33000000
   H     64.56000000    39.84000000    18.06000000
   H     65.03000000    40.74000000    16.15000000
   H     62.34000000    42.09000000    15.99000000
   H     62.88000000    42.72000000    14.19000000
   H     62.78000000    39.32000000    14.97000000
   H     61.81000000    39.76000000    16.38000000
   H     61.48000000    40.40000000    14.73000000
   N     66.12000000    42.45000000    17.62000000
   C     67.16000000    43.42000000    17.86000000
   C     67.89000000    43.91000000    16.62000000
   O     69.12000000    43.82000000    16.61000000
   C     66.77000000    44.64000000    18.69000000
   C     65.79000000    44.18000000    19.76000000
   C     68.01000000    45.37000000    19.20000000
   C     66.50000000    43.44000000    20.89000000
   H     66.17000000    41.48000000    17.90000000
   H     67.80000000    42.81000000    18.50000000
   H     66.23000000    45.35000000    18.06000000
   H     64.95000000    43.60000000    19.37000000
   H     65.29000000    45.03000000    20.22000000
   H     68.58000000    45.71000000    18.33000000
   H     67.75000000    46.27000000    19.75000000
   H     68.56000000    44.70000000    19.87000000
   H     67.11000000    44.08000000    21.52000000
   H     65.70000000    43.09000000    21.54000000
   H     67.01000000    42.56000000    20.49000000
   N     67.22000000    44.49000000    15.63000000
   C     67.74000000    44.74000000    14.30000000
   C     67.64000000    46.23000000    14.01000000
   O     66.89000000    47.01000000    14.59000000
   C     67.22000000    43.80000000    13.22000000
   C     65.73000000    44.02000000    12.97000000
   O     67.36000000    42.46000000    13.65000000
   H     66.24000000    44.63000000    15.82000000
   H     68.81000000    44.52000000    14.33000000
   H     67.69000000    43.94000000    12.25000000
   H     68.27000000    42.32000000    13.92000000
   H     65.19000000    43.85000000    13.90000000
   H     65.59000000    45.06000000    12.66000000
   H     65.43000000    43.29000000    12.22000000
   N     68.33000000    46.74000000    12.99000000
   C     68.16000000    48.08000000    12.45000000
   C     66.94000000    48.21000000    11.55000000
   O     66.86000000    47.54000000    10.53000000
   C     69.46000000    48.54000000    11.79000000
   C     70.56000000    48.76000000    12.83000000
   O     69.85000000    47.74000000    10.70000000
   H     69.06000000    46.21000000    12.55000000
   H     67.99000000    48.75000000    13.29000000
   H     69.30000000    49.56000000    11.42000000
   H     69.17000000    47.06000000    10.62000000
   H     70.72000000    47.82000000    13.34000000
   H     71.47000000    49.10000000    12.33000000
   H     70.22000000    49.53000000    13.52000000
   N     66.01000000    49.09000000    11.92000000
   C     64.61000000    49.10000000    11.54000000
   C     63.92000000    47.78000000    11.85000000
   O     64.32000000    46.72000000    11.37000000
   C     64.50000000    49.38000000    10.05000000
   C     65.37000000    50.50000000     9.48000000
   C     65.40000000    51.86000000    10.17000000
   C     63.99000000    52.31000000    10.55000000
   N     64.03000000    53.64000000    11.16000000
   H     66.10000000    49.48000000    12.85000000
   H     64.09000000    49.80000000    12.20000000
   H     63.45000000    49.67000000     9.98000000
   H     64.62000000    48.53000000     9.37000000
   H     64.99000000    50.71000000     8.48000000
   H     66.38000000    50.07000000     9.49000000
   H     65.92000000    52.54000000     9.50000000
   H     65.84000000    51.82000000    11.17000000
   H     63.62000000    51.65000000    11.33000000
   H     63.37000000    52.30000000     9.65000000
   H     63.07000000    53.94000000    11.31000000
   H     64.53000000    53.66000000    12.04000000
   H     64.44000000    54.31000000    10.52000000
   N     62.85000000    47.79000000    12.64000000
   C     62.05000000    46.59000000    12.83000000
   C     62.48000000    45.59000000    13.90000000
   O     62.35000000    44.38000000    13.76000000
   C     60.56000000    46.93000000    12.86000000
   C     59.60000000    45.75000000    12.74000000
   C     58.15000000    46.13000000    12.44000000
   O     57.36000000    46.12000000    13.41000000
   O     57.71000000    46.30000000    11.29000000
   H     62.43000000    48.63000000    13.01000000
   H     62.23000000    45.95000000    11.97000000
   H     60.40000000    47.54000000    11.98000000
   H     60.23000000    47.34000000    13.81000000
   H     59.65000000    45.26000000    13.71000000
   H     60.00000000    45.09000000    11.97000000
   N     63.25000000    45.96000000    14.93000000
   C     63.34000000    47.24000000    15.60000000
   H     64.00400000    47.89700000    15.03900000
   H     62.34900000    47.69000000    15.66000000
   H     63.73600000    47.09700000    16.60500000
   H     63.58000000    45.12000000    15.38000000
  Ca     56.94000000    36.36000000    17.97000000
   O     55.01000000    34.78000000    17.33000000
   H     54.77000000    34.66000000    16.41000000
   H     55.27000000    33.91000000    17.63000000
   O     57.49000000    37.84000000    15.68000000
   H     58.06000000    38.61000000    15.62000000
   H     57.44000000    37.52000000    14.78000000
   O     57.46000000    34.74000000    15.67000000
   H     57.15000000    33.85000000    15.56000000
   H     57.84000000    34.98000000    14.82000000
   O     55.12000000    38.09000000    17.45000000
   H     55.33000000    38.89000000    16.97000000
   H     54.17000000    38.06000000    17.47000000

Ca 1.00



