%chk=loop2.apoCaM-CA-Ng.Init293.run99.water5.chk
%nprocshared=20
%mem=10GB
%nosave
#b3lyp/svp scf=(tight,noincore,xqc) Test 
#IOP(5/87=12) Density=Current Pop=(MK,readradii) iop(6/33=2) iop(6/42=6)

loop2.apoCaM-CA-Ng.Init293.run99.water5 

   -2  1 
   C     62.79000000    97.11000000    13.93000000
   C     61.46000000    97.27000000    14.64000000
   O     61.25000000    96.64000000    15.67000000
   H     63.56100000    96.85400000    14.65700000
   H     62.71300000    96.31600000    13.18800000
   H     63.05400000    98.04500000    13.43600000
   N     60.51000000    98.00000000    14.05000000
   C     59.45000000    98.71000000    14.72000000
   C     58.03000000    98.24000000    14.43000000
   O     57.10000000    98.87000000    14.91000000
   C     59.54000000   100.23000000    14.58000000
   C     59.35000000   100.84000000    13.20000000
   O     58.96000000   100.13000000    12.24000000
   O     59.63000000   102.05000000    13.14000000
   H     60.64000000    98.32000000    13.10000000
   H     59.60000000    98.57000000    15.79000000
   H     60.55000000   100.53000000    14.87000000
   H     58.83000000   100.79000000    15.18000000
   N     57.86000000    97.15000000    13.67000000
   C     56.56000000    96.54000000    13.51000000
   C     55.72000000    96.45000000    14.77000000
   O     54.71000000    97.16000000    14.88000000
   C     55.94000000    97.08000000    12.23000000
   H     58.66000000    96.72000000    13.23000000
   H     56.78000000    95.50000000    13.26000000
   H     56.63000000    97.11000000    11.38000000
   H     55.14000000    96.45000000    11.86000000
   H     55.55000000    98.08000000    12.43000000
   N     56.14000000    95.60000000    15.70000000
   C     55.59000000    95.45000000    17.03000000
   C     55.66000000    96.74000000    17.84000000
   O     54.79000000    96.92000000    18.70000000
   C     54.26000000    94.71000000    17.07000000
   C     54.44000000    93.35000000    16.40000000
   O     53.96000000    93.06000000    15.28000000
   O     55.21000000    92.60000000    17.03000000
   H     56.98000000    95.09000000    15.44000000
   H     56.27000000    94.84000000    17.62000000
   H     53.53000000    95.28000000    16.49000000
   H     53.77000000    94.58000000    18.04000000
   N     56.54000000    97.69000000    17.52000000
   C     56.70000000    98.98000000    18.16000000
   C     57.47000000    98.98000000    19.48000000
   O     58.64000000    99.38000000    19.49000000
   H     57.11000000    97.58000000    16.70000000
   H     55.72000000    99.43000000    18.35000000
   H     57.19000000    99.73000000    17.55000000
   N     56.82000000    98.52000000    20.55000000
   C     57.35000000    98.25000000    21.86000000
   C     58.23000000    99.28000000    22.56000000
   O     59.15000000    98.95000000    23.31000000
   C     57.97000000    96.86000000    21.73000000
   C     57.06000000    95.67000000    21.46000000
   N     57.28000000    94.93000000    20.37000000
   O     56.26000000    95.29000000    22.31000000
   H     55.93000000    98.11000000    20.30000000
   H     56.54000000    98.04000000    22.56000000
   H     58.48000000    96.59000000    22.66000000
   H     58.76000000    96.89000000    20.98000000
   H     58.04000000    95.10000000    19.73000000
   H     56.70000000    94.12000000    20.24000000
   N     58.14000000   100.54000000    22.12000000
   C     59.05000000   101.61000000    22.47000000
   C     60.46000000   101.53000000    21.90000000
   O     61.33000000   102.15000000    22.51000000
   H     57.34000000   100.86000000    21.60000000
   H     59.17000000   101.52000000    23.55000000
   H     58.58000000   102.58000000    22.30000000
   N     60.75000000   100.74000000    20.86000000
   C     61.99000000   100.74000000    20.11000000
   C     62.96000000    99.59000000    20.36000000
   O     62.50000000    98.52000000    20.74000000
   C     61.48000000   100.62000000    18.68000000
   C     60.76000000   101.85000000    18.15000000
   O     62.48000000   100.47000000    17.69000000
   H     60.02000000   100.08000000    20.63000000
   H     62.48000000   101.69000000    20.34000000
   H     60.84000000    99.75000000    18.51000000
   H     62.76000000    99.55000000    17.69000000
   H     61.44000000   102.70000000    18.07000000
   H     60.57000000   101.67000000    17.09000000
   H     59.85000000   102.10000000    18.70000000
   N     64.24000000    99.73000000    19.98000000
   C     65.09000000    98.57000000    19.81000000
   C     64.54000000    97.61000000    18.76000000
   O     63.79000000    98.02000000    17.88000000
   C     66.57000000    98.84000000    19.57000000
   C     66.90000000    99.17000000    18.12000000
   C     67.09000000    99.70000000    20.72000000
   C     66.28000000   100.51000000    17.71000000
   H     64.51000000   100.57000000    19.50000000
   H     65.00000000    98.00000000    20.74000000
   H     67.04000000    97.88000000    19.77000000
   H     66.55000000    98.41000000    17.42000000
   H     67.96000000    99.34000000    17.95000000
   H     66.76000000   100.73000000    20.55000000
   H     66.68000000    99.30000000    21.65000000
   H     68.17000000    99.62000000    20.66000000
   H     65.20000000   100.46000000    17.76000000
   H     66.68000000   101.29000000    18.36000000
   H     66.62000000   100.81000000    16.72000000
   N     64.91000000    96.33000000    18.79000000
   C     64.52000000    95.29000000    17.86000000
   C     64.07000000    94.09000000    18.69000000
   O     64.79000000    93.19000000    19.11000000
   C     65.66000000    95.03000000    16.87000000
   C     65.12000000    94.04000000    15.84000000
   O     63.95000000    93.62000000    15.82000000
   O     65.92000000    93.58000000    15.00000000
   H     65.57000000    95.97000000    19.47000000
   H     63.67000000    95.64000000    17.28000000
   H     66.57000000    94.68000000    17.34000000
   H     65.88000000    95.97000000    16.36000000
   N     62.80000000    94.06000000    19.09000000
   C     62.16000000    93.05000000    19.91000000
   C     61.26000000    93.70000000    20.95000000
   O     60.04000000    93.76000000    20.79000000
   C     61.46000000    92.09000000    18.94000000
   C     61.37000000    90.68000000    19.46000000
   C     60.12000000    90.15000000    19.84000000
   C     62.55000000    89.93000000    19.52000000
   C     60.03000000    88.82000000    20.24000000
   C     62.40000000    88.57000000    19.80000000
   C     61.18000000    88.01000000    20.20000000
   H     62.29000000    94.91000000    18.90000000
   H     62.95000000    92.47000000    20.39000000
   H     62.00000000    92.09000000    18.00000000
   H     60.50000000    92.48000000    18.61000000
   H     59.25000000    90.78000000    19.77000000
   H     63.51000000    90.37000000    19.26000000
   H     59.02000000    88.46000000    20.32000000
   H     63.28000000    87.96000000    19.68000000
   H     61.13000000    86.95000000    20.38000000
   N     61.83000000    94.29000000    22.01000000
   C     63.24000000    94.53000000    22.22000000
   C     64.00000000    93.32000000    22.77000000
   O     63.71000000    92.73000000    23.80000000
   C     63.39000000    95.79000000    23.06000000
   C     62.05000000    95.77000000    23.79000000
   C     61.04000000    95.20000000    22.81000000
   H     63.69000000    94.85000000    21.28000000
   H     64.20000000    95.72000000    23.79000000
   H     63.48000000    96.76000000    22.58000000
   H     62.05000000    95.11000000    24.66000000
   H     61.80000000    96.80000000    24.07000000
   H     60.20000000    94.79000000    23.38000000
   H     60.61000000    95.91000000    22.10000000
   N     64.93000000    92.82000000    21.96000000
   C     65.88000000    91.74000000    22.13000000
   C     67.30000000    92.14000000    21.74000000
   O     67.53000000    92.57000000    20.61000000
   C     65.39000000    90.49000000    21.40000000
   C     66.13000000    89.19000000    21.69000000
   C     67.40000000    88.82000000    20.93000000
   O     68.52000000    88.82000000    21.48000000
   O     67.31000000    88.63000000    19.69000000
   H     64.99000000    93.29000000    21.07000000
   H     65.86000000    91.47000000    23.19000000
   H     65.52000000    90.58000000    20.32000000
   H     64.33000000    90.37000000    21.61000000
   H     65.39000000    88.43000000    21.44000000
   H     66.30000000    89.03000000    22.75000000
   N     68.29000000    91.98000000    22.62000000
   C     69.66000000    92.43000000    22.46000000
   H     70.30600000    91.57000000    22.28100000
   H     69.72200000    93.11300000    21.61300000
   H     69.98200000    92.94400000    23.36600000
   H     67.95000000    91.59000000    23.49000000
  Ca     64.38000000    91.58000000    14.44000000
   O     65.46000000    91.24000000    17.29000000
   H     66.27000000    91.02000000    17.76000000
   H     65.02000000    91.87000000    17.86000000
   O     61.69000000    91.62000000    14.65000000
   H     61.29000000    92.49000000    14.64000000
   H     60.96000000    91.02000000    14.48000000
   O     64.44000000    89.21000000    15.80000000
   H     64.74000000    89.53000000    16.65000000
   H     64.85000000    88.35000000    15.71000000
   O     66.79000000    90.62000000    13.54000000
   H     67.14000000    91.11000000    12.80000000
   H     67.51000000    90.04000000    13.80000000
   O     63.38000000    89.48000000    12.93000000
   H     63.80000000    89.16000000    12.12000000
   H     62.54000000    89.02000000    12.96000000

Ca 1.00



