%chk=loop3.apoCaM-CA-Ng.Init293.run31.water3.chk
%nprocshared=20
%mem=10GB
%nosave
#b3lyp/svp scf=(tight,noincore,xqc) Test 
#IOP(5/87=12) Density=Current Pop=(MK,readradii) iop(6/33=2) iop(6/42=6)

loop3.apoCaM-CA-Ng.Init293.run31.water3 

   0  1 
   C     38.79000000    -3.03000000   -13.97000000
   C     38.07000000    -2.96000000   -15.30000000
   O     38.09000000    -4.00000000   -15.97000000
   H     39.68700000    -2.41200000   -14.01000000
   H     38.13300000    -2.66500000   -13.18100000
   H     39.07000000    -4.06300000   -13.76200000
   N     37.45000000    -1.83000000   -15.64000000
   C     36.72000000    -1.78000000   -16.89000000
   C     35.37000000    -2.49000000   -16.78000000
   O     34.68000000    -2.44000000   -15.77000000
   C     36.61000000    -0.31000000   -17.28000000
   C     35.72000000    -0.24000000   -18.51000000
   O     35.92000000    -0.99000000   -19.49000000
   O     34.79000000     0.61000000   -18.46000000
   H     37.42000000    -1.05000000   -14.99000000
   H     37.25000000    -2.19000000   -17.74000000
   H     37.58000000     0.06000000   -17.63000000
   H     36.19000000     0.27000000   -16.46000000
   N     35.12000000    -3.34000000   -17.78000000
   C     33.98000000    -4.18000000   -18.12000000
   C     32.61000000    -3.59000000   -17.84000000
   O     31.65000000    -4.21000000   -18.33000000
   C     34.23000000    -5.54000000   -17.48000000
   C     35.17000000    -6.35000000   -18.36000000
   C     36.05000000    -7.31000000   -17.56000000
   C     36.95000000    -8.23000000   -18.38000000
   N     38.02000000    -7.54000000   -19.11000000
   H     35.81000000    -3.29000000   -18.51000000
   H     34.00000000    -4.33000000   -19.20000000
   H     33.28000000    -6.07000000   -17.49000000
   H     34.61000000    -5.36000000   -16.47000000
   H     35.81000000    -5.68000000   -18.94000000
   H     34.62000000    -6.99000000   -19.05000000
   H     35.39000000    -7.96000000   -16.99000000
   H     36.61000000    -6.75000000   -16.80000000
   H     36.31000000    -8.53000000   -19.20000000
   H     37.32000000    -9.03000000   -17.73000000
   H     37.78000000    -6.70000000   -19.61000000
   H     38.74000000    -7.29000000   -18.45000000
   H     38.38000000    -8.28000000   -19.70000000
   N     32.43000000    -2.43000000   -17.21000000
   C     31.13000000    -1.87000000   -16.91000000
   C     31.16000000    -0.35000000   -16.84000000
   O     31.77000000     0.34000000   -16.02000000
   C     30.64000000    -2.41000000   -15.57000000
   C     29.20000000    -2.04000000   -15.23000000
   O     28.68000000    -2.09000000   -14.10000000
   O     28.44000000    -1.74000000   -16.18000000
   H     33.21000000    -1.96000000   -16.79000000
   H     30.41000000    -2.08000000   -17.70000000
   H     31.34000000    -2.31000000   -14.73000000
   H     30.72000000    -3.50000000   -15.66000000
   N     30.32000000     0.30000000   -17.65000000
   C     29.86000000     1.65000000   -17.45000000
   C     28.95000000     1.95000000   -16.26000000
   O     28.22000000     1.08000000   -15.80000000
   H     29.74000000    -0.23000000   -18.29000000
   H     29.38000000     2.11000000   -18.31000000
   H     30.74000000     2.27000000   -17.28000000
   N     28.87000000     3.21000000   -15.82000000
   C     27.95000000     3.68000000   -14.80000000
   C     27.31000000     5.05000000   -15.01000000
   O     26.34000000     5.41000000   -14.35000000
   C     28.55000000     3.39000000   -13.43000000
   C     28.61000000     1.90000000   -13.11000000
   N     29.76000000     1.24000000   -12.98000000
   O     27.57000000     1.26000000   -12.94000000
   H     29.52000000     3.95000000   -16.03000000
   H     27.13000000     2.97000000   -14.88000000
   H     27.96000000     3.99000000   -12.73000000
   H     29.60000000     3.67000000   -13.39000000
   H     30.64000000     1.71000000   -13.06000000
   H     29.69000000     0.33000000   -12.55000000
   N     27.91000000     5.85000000   -15.89000000
   C     27.51000000     7.23000000   -16.02000000
   C     27.53000000     8.11000000   -14.77000000
   O     28.45000000     8.03000000   -13.96000000
   H     28.78000000     5.58000000   -16.33000000
   H     26.53000000     7.20000000   -16.48000000
   H     28.18000000     7.71000000   -16.74000000
   N     26.49000000     8.92000000   -14.60000000
   C     26.31000000     9.75000000   -13.42000000
   C     26.35000000     9.07000000   -12.06000000
   O     26.43000000     9.71000000   -11.01000000
   C     27.28000000    10.93000000   -13.42000000
   C     26.88000000    11.95000000   -14.46000000
   C     27.43000000    11.85000000   -15.74000000
   C     25.82000000    12.81000000   -14.13000000
   C     27.07000000    12.83000000   -16.68000000
   C     25.46000000    13.78000000   -15.08000000
   C     26.11000000    13.80000000   -16.33000000
   O     25.72000000    14.70000000   -17.27000000
   H     25.79000000     9.10000000   -15.31000000
   H     25.34000000    10.23000000   -13.52000000
   H     28.28000000    10.57000000   -13.66000000
   H     27.25000000    11.31000000   -12.40000000
   H     28.07000000    11.03000000   -16.03000000
   H     25.46000000    12.90000000   -13.12000000
   H     27.39000000    12.71000000   -17.70000000
   H     24.67000000    14.45000000   -14.76000000
   H     25.30000000    15.47000000   -16.88000000
   N     26.37000000     7.73000000   -12.05000000
   C     26.23000000     6.84000000   -10.91000000
   C     24.98000000     6.96000000   -10.06000000
   O     24.32000000     5.93000000    -9.93000000
   C     27.53000000     6.72000000   -10.12000000
   C     28.69000000     6.16000000   -10.95000000
   C     27.37000000     5.95000000    -8.82000000
   C     30.07000000     6.57000000   -10.44000000
   H     26.56000000     7.36000000   -12.97000000
   H     26.16000000     5.88000000   -11.43000000
   H     27.91000000     7.70000000    -9.82000000
   H     28.60000000     6.42000000   -12.00000000
   H     28.68000000     5.07000000   -10.90000000
   H     26.73000000     5.08000000    -8.92000000
   H     28.33000000     5.47000000    -8.59000000
   H     26.97000000     6.53000000    -7.98000000
   H     30.20000000     7.62000000   -10.69000000
   H     30.11000000     6.54000000    -9.36000000
   H     30.77000000     5.93000000   -10.98000000
   N     24.74000000     8.06000000    -9.35000000
   C     23.51000000     8.40000000    -8.67000000
   C     23.06000000     7.49000000    -7.53000000
   O     21.85000000     7.38000000    -7.33000000
   C     23.62000000     9.85000000    -8.21000000
   O     23.61000000    10.82000000    -9.23000000
   H     25.30000000     8.88000000    -9.57000000
   H     22.70000000     8.26000000    -9.39000000
   H     24.45000000    10.03000000    -7.54000000
   H     22.72000000    10.12000000    -7.65000000
   H     23.59000000    11.69000000    -8.83000000
   N     24.06000000     6.84000000    -6.94000000
   C     23.98000000     5.83000000    -5.91000000
   C     23.04000000     4.71000000    -6.32000000
   O     22.10000000     4.40000000    -5.58000000
   C     23.91000000     6.50000000    -4.54000000
   H     25.00000000     7.19000000    -7.07000000
   H     24.99000000     5.41000000    -5.86000000
   H     24.64000000     7.30000000    -4.55000000
   H     22.92000000     6.95000000    -4.50000000
   H     24.13000000     5.81000000    -3.72000000
   N     23.18000000     4.19000000    -7.54000000
   C     22.49000000     3.03000000    -8.05000000
   C     23.51000000     1.93000000    -8.33000000
   O     24.70000000     2.20000000    -8.43000000
   C     21.70000000     3.43000000    -9.30000000
   H     23.83000000     4.65000000    -8.17000000
   H     21.80000000     2.64000000    -7.30000000
   H     21.07000000     4.27000000    -9.01000000
   H     22.32000000     3.84000000   -10.10000000
   H     21.14000000     2.56000000    -9.61000000
   N     23.02000000     0.69000000    -8.41000000
   C     23.74000000    -0.50000000    -8.78000000
   C     24.86000000    -0.86000000    -7.81000000
   O     25.92000000    -1.37000000    -8.19000000
   C     24.13000000    -0.38000000   -10.25000000
   C     24.20000000    -1.72000000   -10.97000000
   C     24.95000000    -1.57000000   -12.29000000
   O     26.15000000    -1.90000000   -12.41000000
   O     24.37000000    -1.12000000   -13.30000000
   H     22.01000000     0.66000000    -8.32000000
   H     22.97000000    -1.27000000    -8.77000000
   H     25.11000000     0.10000000   -10.24000000
   H     23.34000000     0.19000000   -10.75000000
   H     23.18000000    -2.08000000   -11.07000000
   H     24.63000000    -2.40000000   -10.24000000
   N     24.62000000    -0.50000000    -6.55000000
   C     25.60000000    -0.53000000    -5.48000000
   H     26.46100000     0.07800000    -5.75900000
   H     25.15500000    -0.13200000    -4.56800000
   H     25.92100000    -1.55800000    -5.30900000
   H     23.79000000     0.05000000    -6.38000000
  Ca     26.60000000    -0.65000000   -14.73000000
   O     25.33000000    -0.66000000   -17.15000000
   H     24.94000000    -1.49000000   -17.41000000
   H     25.06000000    -0.04000000   -17.83000000
   O     25.65000000    -3.13000000   -15.40000000
   H     25.05000000    -3.81000000   -15.10000000
   H     25.70000000    -3.26000000   -16.35000000
   O     25.29000000     1.52000000   -15.03000000
   H     25.10000000     1.99000000   -14.22000000
   H     25.18000000     2.18000000   -15.72000000

Ca 1.00



