%chk=loop3.holoCaM.run98.water2.chk
%nprocshared=20
%mem=10GB
%nosave
#b3lyp/svp scf=(tight,noincore,xqc) Test 
#IOP(5/87=12) Density=Current Pop=(MK,readradii) iop(6/33=2) iop(6/42=6)

loop3.holoCaM.run98.water2 

   0  1 
   C     31.87000000    36.06000000    12.13000000
   C     32.50000000    35.96000000    13.51000000
   O     32.67000000    34.84000000    13.99000000
   H     30.97800000    36.68400000    12.18300000
   H     32.58300000    36.50500000    11.43600000
   H     31.59600000    35.06400000    11.78200000
   N     32.86000000    37.10000000    14.12000000
   C     33.12000000    37.09000000    15.55000000
   C     31.81000000    36.94000000    16.30000000
   O     30.93000000    37.77000000    16.12000000
   C     33.68000000    38.48000000    15.84000000
   C     33.93000000    38.82000000    17.30000000
   O     34.51000000    39.90000000    17.58000000
   O     33.71000000    37.95000000    18.17000000
   H     32.82000000    37.99000000    13.65000000
   H     33.83000000    36.29000000    15.80000000
   H     32.96000000    39.24000000    15.52000000
   H     34.67000000    38.69000000    15.46000000
   N     31.59000000    35.90000000    17.12000000
   C     30.28000000    35.55000000    17.63000000
   C     29.91000000    36.33000000    18.88000000
   O     28.74000000    36.24000000    19.25000000
   C     30.28000000    34.03000000    17.77000000
   C     30.57000000    33.27000000    16.48000000
   C     29.81000000    33.68000000    15.22000000
   C     28.30000000    33.67000000    15.47000000
   N     27.69000000    33.91000000    14.15000000
   H     32.36000000    35.26000000    17.23000000
   H     29.57000000    35.88000000    16.88000000
   H     29.32000000    33.64000000    18.11000000
   H     31.04000000    33.87000000    18.53000000
   H     30.55000000    32.19000000    16.65000000
   H     31.64000000    33.34000000    16.26000000
   H     30.11000000    32.93000000    14.49000000
   H     30.15000000    34.68000000    14.94000000
   H     27.94000000    34.46000000    16.13000000
   H     28.03000000    32.68000000    15.84000000
   H     26.72000000    34.16000000    14.24000000
   H     28.11000000    34.70000000    13.67000000
   H     27.59000000    33.06000000    13.61000000
   N     30.79000000    37.08000000    19.56000000
   C     30.27000000    38.07000000    20.48000000
   C     30.48000000    39.51000000    20.03000000
   O     29.84000000    40.40000000    20.59000000
   C     30.76000000    37.95000000    21.91000000
   C     32.28000000    37.88000000    22.01000000
   O     32.79000000    37.79000000    23.15000000
   O     33.08000000    37.94000000    21.06000000
   H     31.73000000    37.01000000    19.22000000
   H     29.19000000    37.92000000    20.56000000
   H     30.42000000    37.05000000    22.43000000
   H     30.46000000    38.86000000    22.43000000
   N     31.30000000    39.71000000    19.00000000
   C     31.73000000    41.01000000    18.52000000
   C     32.82000000    41.78000000    19.24000000
   O     32.94000000    42.97000000    18.95000000
   H     31.82000000    38.91000000    18.65000000
   H     30.89000000    41.70000000    18.58000000
   H     31.90000000    40.86000000    17.46000000
   N     33.56000000    41.16000000    20.16000000
   C     34.65000000    41.74000000    20.91000000
   C     35.86000000    42.18000000    20.09000000
   O     36.88000000    42.57000000    20.64000000
   C     35.04000000    40.89000000    22.12000000
   C     36.02000000    39.78000000    21.77000000
   N     36.97000000    39.57000000    22.69000000
   O     35.99000000    39.07000000    20.77000000
   H     33.39000000    40.17000000    20.29000000
   H     34.32000000    42.72000000    21.25000000
   H     34.21000000    40.28000000    22.47000000
   H     35.35000000    41.50000000    22.97000000
   H     37.05000000    40.28000000    23.40000000
   H     37.69000000    38.89000000    22.50000000
   N     35.80000000    42.10000000    18.76000000
   C     36.85000000    42.54000000    17.86000000
   C     37.88000000    41.46000000    17.57000000
   O     38.98000000    41.77000000    17.12000000
   H     35.02000000    41.68000000    18.28000000
   H     37.41000000    43.38000000    18.28000000
   H     36.36000000    42.85000000    16.94000000
   N     37.52000000    40.20000000    17.85000000
   C     38.36000000    39.04000000    17.68000000
   C     37.68000000    37.70000000    17.39000000
   O     36.74000000    37.33000000    18.08000000
   C     39.21000000    38.81000000    18.93000000
   C     40.19000000    39.88000000    19.34000000
   C     41.51000000    39.90000000    18.85000000
   C     39.72000000    40.83000000    20.26000000
   C     42.42000000    40.88000000    19.26000000
   C     40.61000000    41.83000000    20.66000000
   C     41.93000000    41.84000000    20.17000000
   O     42.75000000    42.87000000    20.53000000
   H     36.63000000    40.05000000    18.31000000
   H     39.03000000    39.23000000    16.84000000
   H     39.76000000    37.89000000    18.76000000
   H     38.55000000    38.66000000    19.78000000
   H     41.75000000    39.11000000    18.15000000
   H     38.69000000    40.84000000    20.57000000
   H     43.34000000    40.94000000    18.71000000
   H     40.34000000    42.70000000    21.24000000
   H     42.46000000    43.49000000    21.20000000
   N     38.16000000    36.98000000    16.37000000
   C     37.63000000    35.67000000    16.03000000
   C     38.64000000    34.70000000    16.63000000
   O     39.83000000    34.81000000    16.37000000
   C     37.49000000    35.47000000    14.53000000
   C     36.80000000    36.66000000    13.86000000
   C     36.83000000    34.11000000    14.30000000
   C     36.72000000    36.54000000    12.35000000
   H     38.98000000    37.30000000    15.88000000
   H     36.64000000    35.47000000    16.43000000
   H     38.46000000    35.39000000    14.04000000
   H     37.37000000    37.57000000    14.09000000
   H     35.85000000    36.71000000    14.40000000
   H     36.59000000    33.99000000    13.24000000
   H     37.49000000    33.32000000    14.65000000
   H     35.91000000    34.21000000    14.87000000
   H     37.69000000    36.26000000    11.94000000
   H     35.98000000    35.81000000    12.01000000
   H     36.46000000    37.49000000    11.88000000
   N     38.18000000    33.74000000    17.45000000
   C     38.94000000    32.57000000    17.83000000
   C     38.69000000    31.32000000    17.00000000
   O     37.64000000    31.32000000    16.37000000
   C     38.70000000    32.41000000    19.33000000
   O     37.35000000    32.21000000    19.70000000
   H     37.18000000    33.66000000    17.59000000
   H     39.98000000    32.88000000    17.71000000
   H     39.03000000    33.33000000    19.81000000
   H     39.33000000    31.62000000    19.73000000
   H     36.79000000    32.90000000    19.34000000
   N     39.57000000    30.31000000    17.01000000
   C     39.34000000    29.10000000    16.25000000
   C     38.05000000    28.38000000    16.62000000
   O     37.49000000    27.73000000    15.74000000
   C     40.61000000    28.25000000    16.28000000
   H     40.36000000    30.27000000    17.63000000
   H     39.29000000    29.26000000    15.17000000
   H     40.51000000    27.33000000    15.69000000
   H     41.38000000    28.91000000    15.87000000
   H     40.79000000    28.06000000    17.33000000
   N     37.54000000    28.55000000    17.85000000
   C     36.34000000    27.90000000    18.31000000
   C     35.10000000    28.63000000    17.82000000
   O     34.08000000    28.00000000    17.54000000
   C     36.42000000    27.80000000    19.83000000
   H     38.17000000    28.97000000    18.51000000
   H     36.34000000    26.88000000    17.92000000
   H     36.41000000    28.76000000    20.34000000
   H     35.48000000    27.35000000    20.17000000
   H     37.27000000    27.20000000    20.16000000
   N     35.17000000    29.97000000    17.86000000
   C     34.11000000    30.76000000    17.29000000
   C     34.01000000    30.53000000    15.79000000
   O     32.93000000    30.31000000    15.24000000
   C     34.37000000    32.27000000    17.38000000
   C     34.05000000    32.55000000    18.85000000
   C     34.42000000    33.99000000    19.19000000
   O     33.55000000    34.85000000    19.47000000
   O     35.64000000    34.27000000    19.14000000
   H     36.07000000    30.39000000    18.03000000
   H     33.17000000    30.50000000    17.78000000
   H     33.71000000    32.86000000    16.75000000
   H     35.36000000    32.53000000    17.03000000
   H     34.40000000    31.86000000    19.61000000
   H     32.98000000    32.36000000    19.00000000
   N     35.16000000    30.41000000    15.12000000
   C     35.33000000    30.01000000    13.74000000
   H     36.38400000    29.80800000    13.54800000
   H     34.74700000    29.10900000    13.54800000
   H     34.98900000    30.81100000    13.08400000
   H     35.96000000    30.79000000    15.60000000
  Ca     35.09000000    36.78000000    20.00000000
   O     35.01000000    35.81000000    22.47000000
   H     35.34000000    36.07000000    23.33000000
   H     34.09000000    36.05000000    22.48000000
   O     37.63000000    36.20000000    20.84000000
   H     38.54000000    36.07000000    20.57000000
   H     37.56000000    35.74000000    21.68000000

Ca 1.00



