%chk=loop1.holoCaM.run4.water2.chk
%nprocshared=20
%mem=10GB
%nosave
#b3lyp/svp scf=(tight,noincore,xqc) Test 
#IOP(5/87=12) Density=Current Pop=(MK,readradii) iop(6/33=2) iop(6/42=6)

loop1.holoCaM.run4.water2 

   0  1 
   C     55.76000000    43.43000000    22.83000000
   C     56.90000000    42.81000000    22.03000000
   O     57.55000000    41.87000000    22.48000000
   H     54.87100000    42.80600000    22.73900000
   H     56.04800000    43.50000000    23.87900000
   H     55.54500000    44.42600000    22.44400000
   N     57.22000000    43.33000000    20.84000000
   C     58.49000000    43.20000000    20.16000000
   C     59.62000000    43.82000000    20.96000000
   O     59.45000000    44.94000000    21.43000000
   C     58.26000000    43.93000000    18.84000000
   C     59.48000000    43.86000000    17.94000000
   O     60.37000000    43.00000000    18.13000000
   O     59.54000000    44.54000000    16.90000000
   H     56.56000000    43.99000000    20.44000000
   H     58.55000000    42.13000000    19.96000000
   H     58.00000000    44.99000000    18.94000000
   H     57.37000000    43.46000000    18.42000000
   N     60.82000000    43.27000000    21.18000000
   C     61.73000000    43.81000000    22.16000000
   C     62.98000000    44.39000000    21.52000000
   O     63.41000000    45.45000000    21.97000000
   C     62.02000000    42.75000000    23.23000000
   C     60.79000000    42.24000000    23.98000000
   C     59.91000000    43.38000000    24.46000000
   C     58.84000000    42.83000000    25.39000000
   N     57.98000000    43.91000000    25.92000000
   H     60.96000000    42.32000000    20.87000000
   H     61.29000000    44.65000000    22.70000000
   H     62.74000000    43.19000000    23.92000000
   H     62.44000000    41.90000000    22.69000000
   H     61.21000000    41.65000000    24.80000000
   H     60.23000000    41.63000000    23.26000000
   H     59.41000000    43.83000000    23.60000000
   H     60.48000000    44.13000000    25.02000000
   H     59.37000000    42.43000000    26.25000000
   H     58.29000000    41.99000000    24.98000000
   H     58.55000000    44.58000000    26.42000000
   H     57.52000000    44.38000000    25.16000000
   H     57.33000000    43.58000000    26.61000000
   N     63.52000000    43.89000000    20.40000000
   C     64.63000000    44.47000000    19.67000000
   C     64.07000000    45.35000000    18.56000000
   O     64.88000000    45.95000000    17.85000000
   C     65.39000000    43.26000000    19.15000000
   C     64.64000000    42.05000000    18.63000000
   O     63.47000000    42.19000000    18.20000000
   O     65.13000000    40.90000000    18.73000000
   H     63.26000000    42.95000000    20.14000000
   H     65.31000000    45.04000000    20.30000000
   H     66.00000000    42.88000000    19.98000000
   H     66.10000000    43.59000000    18.39000000
   N     62.78000000    45.38000000    18.22000000
   C     62.10000000    46.39000000    17.45000000
   C     62.18000000    46.11000000    15.96000000
   O     62.46000000    47.06000000    15.23000000
   H     62.15000000    44.66000000    18.54000000
   H     62.48000000    47.38000000    17.70000000
   H     61.04000000    46.35000000    17.71000000
   N     62.02000000    44.88000000    15.46000000
   C     62.07000000    44.47000000    14.07000000
   C     60.71000000    44.20000000    13.45000000
   O     60.63000000    43.97000000    12.25000000
   C     62.85000000    43.16000000    13.99000000
   C     62.32000000    42.03000000    14.85000000
   O     63.15000000    41.12000000    15.07000000
   O     61.18000000    42.02000000    15.37000000
   H     61.76000000    44.13000000    16.09000000
   H     62.53000000    45.32000000    13.57000000
   H     63.85000000    43.33000000    14.40000000
   H     63.16000000    42.95000000    12.96000000
   N     59.60000000    44.37000000    14.18000000
   C     58.28000000    44.10000000    13.64000000
   C     57.84000000    42.64000000    13.65000000
   O     57.16000000    42.19000000    12.74000000
   H     59.74000000    44.36000000    15.18000000
   H     58.04000000    44.52000000    12.66000000
   H     57.67000000    44.72000000    14.30000000
   N     58.39000000    41.86000000    14.59000000
   C     57.95000000    40.50000000    14.82000000
   C     58.10000000    40.11000000    16.28000000
   O     58.90000000    40.71000000    16.99000000
   C     58.72000000    39.48000000    14.00000000
   C     58.27000000    39.00000000    12.62000000
   O     60.02000000    39.94000000    13.72000000
   H     59.04000000    42.32000000    15.21000000
   H     56.93000000    40.23000000    14.53000000
   H     58.71000000    38.58000000    14.62000000
   H     60.31000000    40.41000000    14.50000000
   H     57.30000000    38.53000000    12.73000000
   H     58.10000000    39.80000000    11.90000000
   H     59.01000000    38.26000000    12.29000000
   N     57.39000000    39.02000000    16.62000000
   C     57.50000000    38.51000000    17.97000000
   C     58.00000000    37.07000000    17.92000000
   O     57.50000000    36.23000000    17.17000000
   C     56.20000000    38.70000000    18.74000000
   C     55.99000000    40.21000000    18.90000000
   C     56.24000000    38.13000000    20.16000000
   C     54.55000000    40.51000000    19.28000000
   H     56.71000000    38.65000000    15.97000000
   H     58.27000000    39.01000000    18.56000000
   H     55.38000000    38.28000000    18.17000000
   H     56.08000000    40.78000000    17.98000000
   H     56.70000000    40.66000000    19.60000000
   H     55.37000000    38.42000000    20.74000000
   H     56.20000000    37.04000000    20.08000000
   H     57.12000000    38.47000000    20.72000000
   H     53.80000000    40.08000000    18.61000000
   H     54.44000000    40.23000000    20.33000000
   H     54.45000000    41.60000000    19.27000000
   N     59.06000000    36.82000000    18.70000000
   C     59.63000000    35.50000000    18.88000000
   C     59.31000000    34.95000000    20.27000000
   O     58.92000000    35.72000000    21.15000000
   C     61.11000000    35.61000000    18.53000000
   C     61.87000000    36.27000000    19.67000000
   O     61.78000000    34.38000000    18.34000000
   H     59.52000000    37.55000000    19.22000000
   H     59.19000000    34.80000000    18.17000000
   H     61.26000000    36.11000000    17.57000000
   H     62.57000000    34.55000000    17.82000000
   H     61.40000000    37.24000000    19.88000000
   H     62.07000000    35.69000000    20.56000000
   H     62.88000000    36.58000000    19.39000000
   N     59.57000000    33.69000000    20.61000000
   C     59.17000000    33.10000000    21.87000000
   C     59.93000000    33.73000000    23.03000000
   O     59.30000000    33.89000000    24.07000000
   C     59.46000000    31.60000000    22.00000000
   C     58.62000000    30.75000000    21.06000000
   O     60.85000000    31.38000000    21.89000000
   H     59.85000000    33.01000000    19.91000000
   H     58.10000000    33.29000000    21.94000000
   H     59.19000000    31.25000000    23.00000000
   H     61.01000000    30.50000000    22.24000000
   H     57.55000000    30.98000000    21.14000000
   H     58.89000000    30.90000000    20.02000000
   H     58.78000000    29.73000000    21.41000000
   N     61.20000000    34.12000000    22.85000000
   C     61.96000000    34.92000000    23.79000000
   C     61.42000000    36.30000000    24.15000000
   O     61.85000000    36.90000000    25.13000000
   C     63.36000000    35.16000000    23.23000000
   C     64.10000000    33.85000000    22.97000000
   C     65.42000000    33.90000000    22.20000000
   C     65.86000000    32.52000000    21.70000000
   N     66.70000000    32.56000000    20.49000000
   H     61.57000000    34.08000000    21.92000000
   H     61.96000000    34.43000000    24.77000000
   H     63.95000000    35.72000000    23.95000000
   H     63.28000000    35.80000000    22.36000000
   H     63.49000000    33.11000000    22.46000000
   H     64.27000000    33.40000000    23.95000000
   H     66.21000000    34.18000000    22.90000000
   H     65.30000000    34.61000000    21.38000000
   H     65.05000000    31.80000000    21.62000000
   H     66.54000000    32.12000000    22.45000000
   H     66.14000000    32.56000000    19.65000000
   H     67.42000000    33.26000000    20.49000000
   H     67.02000000    31.63000000    20.25000000
   N     60.39000000    36.80000000    23.45000000
   C     59.56000000    37.97000000    23.66000000
   C     58.13000000    37.67000000    24.08000000
   O     57.54000000    38.37000000    24.89000000
   C     59.63000000    38.84000000    22.41000000
   C     61.05000000    39.19000000    21.95000000
   C     61.10000000    39.88000000    20.59000000
   O     60.38000000    39.41000000    19.69000000
   O     62.00000000    40.71000000    20.34000000
   H     60.04000000    36.16000000    22.75000000
   H     60.05000000    38.50000000    24.47000000
   H     59.05000000    39.75000000    22.53000000
   H     59.26000000    38.21000000    21.60000000
   H     61.75000000    38.36000000    21.98000000
   H     61.53000000    39.90000000    22.62000000
   N     57.49000000    36.69000000    23.43000000
   C     56.11000000    36.31000000    23.63000000
   H     55.48900000    36.78700000    22.87200000
   H     56.01500000    35.22700000    23.54800000
   H     55.78400000    36.63000000    24.62000000
   H     58.02000000    36.23000000    22.70000000
  Ca     61.38000000    40.74000000    17.66000000
   O     61.20000000    38.44000000    15.97000000
   H     61.44000000    38.50000000    15.04000000
   H     61.88000000    37.88000000    16.35000000
   O     63.32000000    38.88000000    17.96000000
   H     63.82000000    38.84000000    18.78000000
   H     63.97000000    38.73000000    17.28000000

Ca 1.00



