%chk=loop2.holoCaM.run3.water1.chk
%nprocshared=20
%mem=10GB
%nosave
#b3lyp/svp scf=(tight,noincore,xqc) Test 
#IOP(5/87=12) Density=Current Pop=(MK,readradii) iop(6/33=2) iop(6/42=6)

loop2.holoCaM.run3.water1 

   -2  1 
   C     53.12000000    32.39000000    16.52000000
   C     54.15000000    32.65000000    15.43000000
   O     53.88000000    33.22000000    14.37000000
   H     52.18600000    32.06100000    16.06500000
   H     53.48900000    31.61500000    17.19200000
   H     52.94600000    33.30700000    17.08300000
   N     55.39000000    32.18000000    15.62000000
   C     56.53000000    32.41000000    14.76000000
   C     56.42000000    31.61000000    13.47000000
   O     56.11000000    30.42000000    13.53000000
   C     57.78000000    32.02000000    15.53000000
   C     59.12000000    31.99000000    14.81000000
   O     59.29000000    32.63000000    13.75000000
   O     60.05000000    31.31000000    15.30000000
   H     55.50000000    31.70000000    16.50000000
   H     56.57000000    33.46000000    14.47000000
   H     57.64000000    30.99000000    15.87000000
   H     57.95000000    32.73000000    16.34000000
   N     56.62000000    32.25000000    12.31000000
   C     56.22000000    31.82000000    10.99000000
   C     57.42000000    31.12000000    10.36000000
   O     57.20000000    29.99000000     9.93000000
   C     55.75000000    32.99000000    10.14000000
   H     57.11000000    33.14000000    12.33000000
   H     55.41000000    31.10000000    11.10000000
   H     55.54000000    32.57000000     9.15000000
   H     54.97000000    33.57000000    10.63000000
   H     56.65000000    33.60000000    10.03000000
   N     58.61000000    31.71000000    10.22000000
   C     59.76000000    31.06000000     9.62000000
   C     60.48000000    30.16000000    10.61000000
   O     61.06000000    29.18000000    10.14000000
   C     60.80000000    32.08000000     9.17000000
   C     61.37000000    33.06000000    10.19000000
   O     60.70000000    33.24000000    11.23000000
   O     62.48000000    33.60000000     9.99000000
   H     58.81000000    32.56000000    10.73000000
   H     59.39000000    30.46000000     8.79000000
   H     60.22000000    32.68000000     8.47000000
   H     61.64000000    31.51000000     8.76000000
   N     60.27000000    30.28000000    11.92000000
   C     60.70000000    29.31000000    12.91000000
   C     62.03000000    29.68000000    13.55000000
   O     62.80000000    28.80000000    13.94000000
   H     59.61000000    30.97000000    12.23000000
   H     60.77000000    28.33000000    12.43000000
   H     59.93000000    29.32000000    13.68000000
   N     62.31000000    30.98000000    13.56000000
   C     63.58000000    31.56000000    13.93000000
   C     63.77000000    31.73000000    15.44000000
   O     64.88000000    31.68000000    15.95000000
   C     64.03000000    32.78000000    13.13000000
   C     63.46000000    34.05000000    13.73000000
   N     64.34000000    35.02000000    13.98000000
   O     62.27000000    34.13000000    14.05000000
   H     61.51000000    31.53000000    13.26000000
   H     64.32000000    30.81000000    13.67000000
   H     63.69000000    32.67000000    12.10000000
   H     65.12000000    32.82000000    13.16000000
   H     65.29000000    34.83000000    13.69000000
   H     64.11000000    35.88000000    14.46000000
   N     62.69000000    31.80000000    16.23000000
   C     62.57000000    31.79000000    17.67000000
   C     62.52000000    33.22000000    18.19000000
   O     62.37000000    33.40000000    19.40000000
   H     61.84000000    31.81000000    15.69000000
   H     63.43000000    31.25000000    18.08000000
   H     61.67000000    31.31000000    18.04000000
   N     62.49000000    34.26000000    17.36000000
   C     61.94000000    35.56000000    17.69000000
   C     60.75000000    35.94000000    16.83000000
   O     60.39000000    35.30000000    15.84000000
   C     63.05000000    36.61000000    17.61000000
   C     64.28000000    36.28000000    18.45000000
   O     63.33000000    36.83000000    16.24000000
   H     62.46000000    34.03000000    16.38000000
   H     61.62000000    35.50000000    18.73000000
   H     62.67000000    37.57000000    17.95000000
   H     64.03000000    37.46000000    16.08000000
   H     63.97000000    35.99000000    19.45000000
   H     64.73000000    35.37000000    18.04000000
   H     65.00000000    37.10000000    18.51000000
   N     60.14000000    37.07000000    17.20000000
   C     58.95000000    37.57000000    16.54000000
   C     59.16000000    38.69000000    15.54000000
   O     59.93000000    39.62000000    15.78000000
   C     57.82000000    37.78000000    17.54000000
   C     58.15000000    38.56000000    18.81000000
   C     57.06000000    36.48000000    17.79000000
   C     56.87000000    38.93000000    19.55000000
   H     60.50000000    37.54000000    18.02000000
   H     58.67000000    36.83000000    15.79000000
   H     56.99000000    38.32000000    17.07000000
   H     58.67000000    39.48000000    18.56000000
   H     58.74000000    37.88000000    19.43000000
   H     57.42000000    35.89000000    18.63000000
   H     56.00000000    36.70000000    17.95000000
   H     57.21000000    35.72000000    17.03000000
   H     57.10000000    39.47000000    20.47000000
   H     56.32000000    39.66000000    18.96000000
   H     56.34000000    38.01000000    19.78000000
   N     58.38000000    38.74000000    14.46000000
   C     58.18000000    39.76000000    13.44000000
   C     56.79000000    40.34000000    13.65000000
   O     55.89000000    39.66000000    14.14000000
   C     58.31000000    39.16000000    12.04000000
   C     59.65000000    38.50000000    11.76000000
   O     60.55000000    39.11000000    11.14000000
   O     59.78000000    37.28000000    12.02000000
   H     57.79000000    37.91000000    14.43000000
   H     58.93000000    40.51000000    13.67000000
   H     58.15000000    39.98000000    11.34000000
   H     57.43000000    38.57000000    11.78000000
   N     56.51000000    41.54000000    13.13000000
   C     55.36000000    42.35000000    13.47000000
   C     54.05000000    41.64000000    13.14000000
   O     53.23000000    41.61000000    14.06000000
   C     55.45000000    43.75000000    12.89000000
   C     54.33000000    44.68000000    13.30000000
   C     54.28000000    45.12000000    14.63000000
   C     53.20000000    44.75000000    12.48000000
   C     53.13000000    45.77000000    15.10000000
   C     52.04000000    45.40000000    12.93000000
   C     52.05000000    45.91000000    14.23000000
   H     57.28000000    42.06000000    12.74000000
   H     55.43000000    42.57000000    14.54000000
   H     55.36000000    43.56000000    11.82000000
   H     56.38000000    44.24000000    13.18000000
   H     55.11000000    44.95000000    15.30000000
   H     53.12000000    44.28000000    11.51000000
   H     53.18000000    46.08000000    16.14000000
   H     51.19000000    45.42000000    12.26000000
   H     51.16000000    46.39000000    14.63000000
   N     53.82000000    40.97000000    12.01000000
   C     52.62000000    40.19000000    11.80000000
   C     52.44000000    39.06000000    12.81000000
   O     51.29000000    38.69000000    13.05000000
   C     52.75000000    39.45000000    10.47000000
   C     53.82000000    40.23000000     9.71000000
   C     54.66000000    40.82000000    10.84000000
   H     51.71000000    40.79000000    11.87000000
   H     53.10000000    38.43000000    10.63000000
   H     51.83000000    39.41000000     9.89000000
   H     54.27000000    39.63000000     8.92000000
   H     53.34000000    41.04000000     9.17000000
   H     55.50000000    40.16000000    11.05000000
   H     54.94000000    41.80000000    10.44000000
   N     53.57000000    38.54000000    13.28000000
   C     53.62000000    37.47000000    14.26000000
   C     53.27000000    38.02000000    15.63000000
   O     52.45000000    37.41000000    16.30000000
   C     54.97000000    36.75000000    14.30000000
   C     55.51000000    36.18000000    13.00000000
   C     56.94000000    35.67000000    13.12000000
   O     57.71000000    35.99000000    14.05000000
   O     57.36000000    34.92000000    12.21000000
   H     54.46000000    38.99000000    13.11000000
   H     52.81000000    36.82000000    13.92000000
   H     54.91000000    35.96000000    15.05000000
   H     55.72000000    37.44000000    14.68000000
   H     55.60000000    36.94000000    12.23000000
   H     55.01000000    35.33000000    12.54000000
   N     53.76000000    39.22000000    15.97000000
   C     53.44000000    40.06000000    17.11000000
   H     52.41200000    39.87300000    17.42100000
   H     54.11600000    39.82900000    17.93300000
   H     53.55000000    41.10800000    16.83200000
   H     54.31000000    39.62000000    15.23000000
  Ca     59.97000000    34.99000000    13.15000000
   O     62.17000000    35.69000000    11.66000000
   H     61.90000000    36.23000000    10.92000000
   H     62.52000000    34.90000000    11.27000000

Ca 1.00



