%chk=loop4.apoCaM-CA-Ng.Init31.run59.water4.chk
%nprocshared=20
%mem=10GB
%nosave
#b3lyp/svp scf=(tight,noincore,xqc) Test 
#IOP(5/87=12) Density=Current Pop=(MK,readradii) iop(6/33=2) iop(6/42=6)

loop4.apoCaM-CA-Ng.Init31.run59.water4 

   -3  1 
   C     83.75000000    38.05000000     8.86000000
   C     84.88000000    38.97000000     8.43000000
   O     84.61000000    40.10000000     8.02000000
   H     82.87200000    38.24200000     8.24300000
   H     84.05900000    37.01200000     8.73800000
   H     83.50700000    38.23700000     9.90600000
   N     86.16000000    38.57000000     8.44000000
   C     86.80000000    37.32000000     8.78000000
   C     87.85000000    37.33000000     9.89000000
   O     88.22000000    36.27000000    10.38000000
   C     87.42000000    36.76000000     7.49000000
   C     86.67000000    37.03000000     6.20000000
   O     87.35000000    37.47000000     5.25000000
   O     85.51000000    36.62000000     5.99000000
   H     86.80000000    39.31000000     8.18000000
   H     86.01000000    36.61000000     8.98000000
   H     87.55000000    35.69000000     7.63000000
   H     88.44000000    37.13000000     7.40000000
   N     88.47000000    38.47000000    10.18000000
   C     89.58000000    38.59000000    11.10000000
   C     90.62000000    37.48000000    11.10000000
   O     90.88000000    36.88000000    12.15000000
   C     90.23000000    39.96000000    11.18000000
   C     89.22000000    41.02000000    11.63000000
   C     91.30000000    40.07000000    12.27000000
   C     88.42000000    40.80000000    12.91000000
   H     88.14000000    39.28000000     9.68000000
   H     89.05000000    38.52000000    12.05000000
   H     90.76000000    40.34000000    10.31000000
   H     88.52000000    41.27000000    10.84000000
   H     89.80000000    41.94000000    11.68000000
   H     92.16000000    39.41000000    12.17000000
   H     91.81000000    41.03000000    12.33000000
   H     90.87000000    39.88000000    13.25000000
   H     87.87000000    41.73000000    12.98000000
   H     87.68000000    40.01000000    12.75000000
   H     88.95000000    40.67000000    13.85000000
   N     91.11000000    37.13000000     9.91000000
   C     92.11000000    36.11000000     9.65000000
   C     91.88000000    35.27000000     8.40000000
   O     92.81000000    34.63000000     7.93000000
   C     93.44000000    36.86000000     9.66000000
   C     94.66000000    35.99000000     9.91000000
   O     95.79000000    36.34000000     9.53000000
   O     94.53000000    34.94000000    10.59000000
   H     90.74000000    37.66000000     9.14000000
   H     92.10000000    35.50000000    10.55000000
   H     93.52000000    37.78000000    10.24000000
   H     93.56000000    37.17000000     8.62000000
   N     90.68000000    35.32000000     7.83000000
   C     90.36000000    34.80000000     6.51000000
   C     91.03000000    35.56000000     5.37000000
   O     91.59000000    36.64000000     5.52000000
   H     89.97000000    35.85000000     8.32000000
   H     89.30000000    34.79000000     6.26000000
   H     90.76000000    33.79000000     6.54000000
   N     91.16000000    34.87000000     4.23000000
   C     91.80000000    35.43000000     3.06000000
   C     93.26000000    35.00000000     2.93000000
   O     93.54000000    33.82000000     3.15000000
   C     91.11000000    35.17000000     1.73000000
   C     89.61000000    35.35000000     1.96000000
   O     88.90000000    34.40000000     2.33000000
   O     89.20000000    36.52000000     1.84000000
   H     90.71000000    33.96000000     4.15000000
   H     91.86000000    36.50000000     3.21000000
   H     91.25000000    34.14000000     1.39000000
   H     91.49000000    35.69000000     0.85000000
   N     94.18000000    35.85000000     2.48000000
   C     93.96000000    37.23000000     2.09000000
   C     95.27000000    37.89000000     1.68000000
   O     96.35000000    37.42000000     2.04000000
   H     95.13000000    35.51000000     2.40000000
   H     93.51000000    37.75000000     2.93000000
   H     93.26000000    37.23000000     1.26000000
   N     95.41000000    38.88000000     0.80000000
   C     94.45000000    39.71000000     0.09000000
   C     93.40000000    40.42000000     0.94000000
   O     93.37000000    40.25000000     2.16000000
   C     93.92000000    38.91000000    -1.10000000
   C     94.96000000    38.45000000    -2.11000000
   C     94.24000000    37.58000000    -3.13000000
   N     94.45000000    37.91000000    -4.41000000
   O     93.51000000    36.66000000    -2.79000000
   H     96.37000000    39.06000000     0.55000000
   H     94.96000000    40.61000000    -0.24000000
   H     93.14000000    39.44000000    -1.65000000
   H     93.45000000    38.03000000    -0.66000000
   H     95.66000000    37.78000000    -1.60000000
   H     95.50000000    39.31000000    -2.50000000
   H     94.91000000    38.78000000    -4.62000000
   H     93.95000000    37.48000000    -5.18000000
   N     92.66000000    41.38000000     0.38000000
   C     91.75000000    42.23000000     1.11000000
   C     91.88000000    43.70000000     0.72000000
   O     92.58000000    44.07000000    -0.22000000
   C     90.31000000    41.71000000     1.03000000
   C     90.08000000    40.49000000     1.91000000
   C     89.95000000    41.39000000    -0.42000000
   H     92.54000000    41.37000000    -0.63000000
   H     91.98000000    42.28000000     2.17000000
   H     89.58000000    42.43000000     1.41000000
   H     90.33000000    40.78000000     2.93000000
   H     89.05000000    40.16000000     1.81000000
   H     90.64000000    39.61000000     1.61000000
   H     90.52000000    40.56000000    -0.83000000
   H     88.88000000    41.23000000    -0.57000000
   H     90.13000000    42.31000000    -0.98000000
   N     91.10000000    44.56000000     1.37000000
   C     91.01000000    45.98000000     1.08000000
   C     90.44000000    46.33000000    -0.29000000
   O     90.43000000    47.46000000    -0.78000000
   C     90.10000000    46.52000000     2.17000000
   C     90.30000000    48.01000000     2.44000000
   N     89.32000000    48.79000000     1.96000000
   O     91.34000000    48.53000000     2.84000000
   H     90.59000000    44.21000000     2.17000000
   H     92.03000000    46.35000000     1.08000000
   H     90.50000000    46.07000000     3.08000000
   H     89.10000000    46.17000000     1.93000000
   H     88.51000000    48.37000000     1.54000000
   H     89.31000000    49.79000000     2.07000000
   N     89.80000000    45.33000000    -0.90000000
   C     88.73000000    45.49000000    -1.87000000
   C     87.67000000    44.45000000    -1.56000000
   O     87.71000000    43.80000000    -0.51000000
   C     89.31000000    45.48000000    -3.28000000
   C     90.02000000    44.18000000    -3.59000000
   C     89.33000000    43.15000000    -4.24000000
   C     91.27000000    43.90000000    -3.03000000
   C     89.92000000    41.88000000    -4.40000000
   C     91.81000000    42.62000000    -3.20000000
   C     91.19000000    41.56000000    -3.89000000
   O     91.77000000    40.34000000    -4.10000000
   H     89.93000000    44.45000000    -0.43000000
   H     88.30000000    46.48000000    -1.69000000
   H     89.97000000    46.32000000    -3.47000000
   H     88.46000000    45.62000000    -3.94000000
   H     88.45000000    43.38000000    -4.81000000
   H     91.81000000    44.56000000    -2.36000000
   H     89.41000000    41.19000000    -5.05000000
   H     92.71000000    42.38000000    -2.65000000
   H     91.33000000    39.59000000    -4.50000000
   N     86.73000000    44.30000000    -2.50000000
   C     85.80000000    43.20000000    -2.53000000
   C     84.98000000    43.32000000    -1.25000000
   O     84.52000000    44.37000000    -0.82000000
   C     84.96000000    43.26000000    -3.81000000
   C     85.62000000    43.22000000    -5.18000000
   C     84.55000000    43.46000000    -6.24000000
   O     84.27000000    42.52000000    -7.02000000
   O     84.08000000    44.60000000    -6.40000000
   H     86.73000000    45.00000000    -3.22000000
   H     86.35000000    42.26000000    -2.54000000
   H     84.41000000    44.19000000    -3.72000000
   H     84.26000000    42.44000000    -3.65000000
   H     86.14000000    42.27000000    -5.33000000
   H     86.34000000    44.04000000    -5.19000000
   N     84.63000000    42.23000000    -0.58000000
   C     83.68000000    42.08000000     0.50000000
   C     84.34000000    42.20000000     1.87000000
   O     83.77000000    41.67000000     2.83000000
   C     83.08000000    40.69000000     0.31000000
   C     84.16000000    39.61000000     0.26000000
   C     83.55000000    38.28000000     0.66000000
   O     83.21000000    38.00000000     1.83000000
   O     83.21000000    37.46000000    -0.23000000
   H     85.13000000    41.37000000    -0.79000000
   H     82.94000000    42.88000000     0.43000000
   H     82.62000000    40.76000000    -0.68000000
   H     82.37000000    40.43000000     1.09000000
   H     85.00000000    39.87000000     0.90000000
   H     84.54000000    39.55000000    -0.76000000
   N     85.43000000    42.96000000     2.00000000
   C     86.00000000    43.45000000     3.24000000
   H     86.89300000    44.03600000     3.02200000
   H     85.27100000    44.07700000     3.75300000
   H     86.26600000    42.60600000     3.87700000
   H     85.75000000    43.38000000     1.15000000
  Ca     85.05000000    37.12000000     3.48000000
   O     84.99000000    35.50000000     1.26000000
   H     84.59000000    34.69000000     1.58000000
   H     84.73000000    35.55000000     0.34000000
   O     85.33000000    39.69000000     4.04000000
   H     84.84000000    40.25000000     3.44000000
   H     85.31000000    40.16000000     4.88000000
   O     86.72000000    35.02000000     3.68000000
   H     87.53000000    34.70000000     3.28000000
   H     86.55000000    34.40000000     4.40000000
   O     86.83000000    37.86000000     1.74000000
   H     87.07000000    38.49000000     1.07000000
   H     87.54000000    37.22000000     1.74000000

Ca 1.00



