%chk=loop1.apoCaM-CA-Ng.Init31.run20.water5.chk
%nprocshared=20
%mem=10GB
%nosave
#b3lyp/svp scf=(tight,noincore,xqc) Test 
#IOP(5/87=12) Density=Current Pop=(MK,readradii) iop(6/33=2) iop(6/42=6)

loop1.apoCaM-CA-Ng.Init31.run20.water5 

   0  1 
   C     72.05000000    64.54000000    -9.62000000
   C     71.61000000    63.94000000   -10.95000000
   O     71.34000000    64.67000000   -11.91000000
   H     72.91400000    65.18500000    -9.78100000
   H     71.23400000    65.12600000    -9.19700000
   H     72.31900000    63.73900000    -8.93100000
   N     71.44000000    62.62000000   -11.08000000
   C     71.01000000    61.87000000   -12.24000000
   C     70.12000000    60.71000000   -11.81000000
   O     70.16000000    60.44000000   -10.62000000
   C     72.22000000    61.30000000   -12.98000000
   C     71.88000000    60.69000000   -14.33000000
   O     70.81000000    60.90000000   -14.95000000
   O     72.73000000    59.88000000   -14.76000000
   H     71.83000000    62.09000000   -10.31000000
   H     70.54000000    62.54000000   -12.96000000
   H     72.57000000    60.51000000   -12.31000000
   H     73.00000000    62.04000000   -13.18000000
   N     69.43000000    60.09000000   -12.77000000
   C     68.24000000    59.29000000   -12.59000000
   C     68.30000000    58.17000000   -11.56000000
   O     67.41000000    58.10000000   -10.72000000
   C     67.86000000    58.73000000   -13.96000000
   C     66.79000000    57.65000000   -14.03000000
   C     66.60000000    57.04000000   -15.42000000
   C     65.68000000    55.82000000   -15.34000000
   N     65.50000000    55.17000000   -16.65000000
   H     69.52000000    60.55000000   -13.67000000
   H     67.43000000    59.95000000   -12.29000000
   H     68.74000000    58.33000000   -14.47000000
   H     67.51000000    59.55000000   -14.59000000
   H     65.89000000    58.22000000   -13.81000000
   H     67.07000000    56.87000000   -13.32000000
   H     67.50000000    56.65000000   -15.90000000
   H     66.06000000    57.80000000   -15.98000000
   H     64.75000000    56.19000000   -14.90000000
   H     66.06000000    55.12000000   -14.60000000
   H     64.92000000    55.72000000   -17.28000000
   H     66.41000000    55.02000000   -17.04000000
   H     65.06000000    54.27000000   -16.53000000
   N     69.27000000    57.25000000   -11.59000000
   C     70.51000000    57.17000000   -12.32000000
   C     71.79000000    57.18000000   -11.50000000
   O     71.87000000    56.71000000   -10.37000000
   C     70.38000000    55.91000000   -13.17000000
   C     71.38000000    55.77000000   -14.32000000
   O     72.12000000    56.70000000   -14.70000000
   O     71.39000000    54.62000000   -14.81000000
   H     69.15000000    56.49000000   -10.94000000
   H     70.63000000    58.06000000   -12.94000000
   H     69.43000000    55.82000000   -13.69000000
   H     70.45000000    55.05000000   -12.50000000
   N     72.86000000    57.70000000   -12.12000000
   C     74.09000000    57.85000000   -11.38000000
   C     75.26000000    58.59000000   -12.03000000
   O     75.25000000    59.77000000   -12.37000000
   H     72.94000000    57.80000000   -13.12000000
   H     74.55000000    56.89000000   -11.14000000
   H     73.83000000    58.29000000   -10.42000000
   N     76.36000000    57.84000000   -12.14000000
   C     77.59000000    58.23000000   -12.79000000
   C     78.89000000    57.64000000   -12.27000000
   O     78.80000000    56.62000000   -11.59000000
   C     77.50000000    58.02000000   -14.30000000
   C     76.16000000    57.99000000   -15.03000000
   O     75.92000000    58.95000000   -15.79000000
   O     75.23000000    57.18000000   -14.81000000
   H     76.26000000    56.86000000   -11.91000000
   H     77.65000000    59.31000000   -12.68000000
   H     77.79000000    57.02000000   -14.62000000
   H     78.09000000    58.77000000   -14.82000000
   N     80.09000000    58.21000000   -12.38000000
   C     80.39000000    59.44000000   -13.09000000
   C     81.13000000    59.24000000   -14.40000000
   O     81.14000000    60.19000000   -15.18000000
   H     80.91000000    57.83000000   -11.93000000
   H     80.99000000    60.02000000   -12.38000000
   H     79.51000000    60.04000000   -13.32000000
   N     81.66000000    58.06000000   -14.73000000
   C     82.42000000    57.70000000   -15.91000000
   C     83.66000000    58.58000000   -16.00000000
   O     83.56000000    59.73000000   -16.41000000
   C     81.60000000    57.56000000   -17.18000000
   C     80.15000000    57.18000000   -16.88000000
   O     82.25000000    56.62000000   -18.00000000
   H     81.79000000    57.42000000   -13.95000000
   H     82.63000000    56.65000000   -15.68000000
   H     81.58000000    58.49000000   -17.76000000
   H     81.62000000    56.50000000   -18.71000000
   H     79.53000000    57.94000000   -16.40000000
   H     79.51000000    56.95000000   -17.73000000
   H     80.11000000    56.30000000   -16.24000000
   N     84.79000000    58.01000000   -15.59000000
   C     86.06000000    58.60000000   -15.23000000
   C     86.88000000    58.98000000   -16.45000000
   O     88.01000000    58.51000000   -16.55000000
   C     86.00000000    59.68000000   -14.15000000
   C     85.09000000    59.32000000   -12.98000000
   C     87.41000000    59.92000000   -13.63000000
   C     85.06000000    60.54000000   -12.06000000
   H     84.68000000    57.03000000   -15.36000000
   H     86.55000000    57.72000000   -14.82000000
   H     85.73000000    60.63000000   -14.62000000
   H     85.57000000    58.48000000   -12.48000000
   H     84.08000000    59.03000000   -13.26000000
   H     88.06000000    60.26000000   -14.44000000
   H     87.49000000    60.73000000   -12.90000000
   H     87.76000000    59.01000000   -13.16000000
   H     84.82000000    61.40000000   -12.69000000
   H     84.27000000    60.42000000   -11.32000000
   H     85.99000000    60.65000000   -11.51000000
   N     86.36000000    59.73000000   -17.42000000
   C     87.03000000    60.13000000   -18.64000000
   C     88.30000000    60.93000000   -18.37000000
   O     88.34000000    61.64000000   -17.37000000
   C     86.07000000    60.96000000   -19.49000000
   C     85.70000000    62.36000000   -19.00000000
   O     84.88000000    60.26000000   -19.77000000
   H     85.44000000    60.12000000   -17.24000000
   H     87.22000000    59.29000000   -19.31000000
   H     86.50000000    61.11000000   -20.48000000
   H     85.14000000    59.47000000   -20.24000000
   H     86.59000000    62.97000000   -19.18000000
   H     84.87000000    62.72000000   -19.59000000
   H     85.44000000    62.27000000   -17.94000000
   N     89.32000000    60.82000000   -19.23000000
   C     90.59000000    61.46000000   -18.95000000
   C     90.70000000    62.90000000   -19.42000000
   O     90.84000000    63.18000000   -20.61000000
   C     91.78000000    60.72000000   -19.55000000
   C     93.14000000    61.13000000   -18.99000000
   O     91.80000000    59.35000000   -19.21000000
   H     89.37000000    60.09000000   -19.92000000
   H     90.70000000    61.52000000   -17.87000000
   H     91.79000000    60.75000000   -20.64000000
   H     92.57000000    58.97000000   -19.65000000
   H     93.84000000    60.45000000   -19.50000000
   H     93.37000000    62.19000000   -19.09000000
   H     93.08000000    60.79000000   -17.96000000
   N     90.78000000    63.88000000   -18.52000000
   C     90.52000000    65.30000000   -18.65000000
   C     89.20000000    65.59000000   -19.34000000
   O     88.82000000    64.97000000   -20.33000000
   C     91.64000000    65.91000000   -19.49000000
   C     93.05000000    65.77000000   -18.94000000
   C     94.02000000    66.76000000   -19.59000000
   C     95.45000000    66.37000000   -19.23000000
   N     96.41000000    67.34000000   -19.79000000
   H     90.81000000    63.58000000   -17.55000000
   H     90.61000000    65.78000000   -17.68000000
   H     91.57000000    67.00000000   -19.48000000
   H     91.57000000    65.62000000   -20.54000000
   H     93.48000000    64.77000000   -19.01000000
   H     93.03000000    66.03000000   -17.88000000
   H     93.83000000    67.75000000   -19.19000000
   H     93.82000000    66.75000000   -20.66000000
   H     95.77000000    65.37000000   -19.53000000
   H     95.55000000    66.42000000   -18.14000000
   H     96.16000000    68.29000000   -19.58000000
   H     97.35000000    67.21000000   -19.42000000
   H     96.45000000    67.33000000   -20.79000000
   N     88.54000000    66.61000000   -18.77000000
   C     87.30000000    67.15000000   -19.27000000
   C     86.06000000    66.36000000   -18.90000000
   O     85.31000000    66.02000000   -19.82000000
   C     87.19000000    68.63000000   -18.90000000
   C     86.05000000    69.35000000   -19.62000000
   C     86.26000000    70.86000000   -19.70000000
   O     86.12000000    71.46000000   -20.78000000
   O     86.55000000    71.52000000   -18.68000000
   H     89.00000000    67.03000000   -17.97000000
   H     87.34000000    67.18000000   -20.36000000
   H     88.14000000    69.08000000   -19.17000000
   H     87.12000000    68.86000000   -17.84000000
   H     85.11000000    69.12000000   -19.12000000
   H     86.04000000    69.04000000   -20.67000000
   N     85.78000000    65.96000000   -17.65000000
   C     86.47000000    66.14000000   -16.39000000
   H     87.36700000    66.73800000   -16.55000000
   H     85.81400000    66.65100000   -15.68500000
   H     86.75000000    65.16700000   -15.98600000
   H     84.98000000    65.35000000   -17.60000000
  Ca     73.49000000    58.03000000   -16.45600000
   O     73.66000000    60.36000000   -17.54600000
   H     73.44000000    61.12000000   -17.02600000
   H     74.05000000    60.72000000   -18.34600000
   O     72.96000000    55.46000000   -16.95600000
   H     72.30000000    55.05000000   -16.39600000
   H     73.09000000    54.83000000   -17.66600000
   O     75.23000000    57.25000000   -18.63600000
   H     76.02000000    56.86000000   -18.25600000
   H     75.35000000    57.18000000   -19.57600000
   O     72.14000000    58.12000000   -18.93600000
   H     72.16000000    59.00000000   -19.31600000
   H     71.29000000    57.77000000   -19.19600000
   O     70.75000000    58.56000000   -16.40600000
   H     70.18000000    58.70000000   -17.16600000
   H     70.63000000    59.35000000   -15.86600000

Ca 1.00



