%chk=loop2.apoCaM-CA-Ng.Init293.run62.water5.chk
%nprocshared=20
%mem=10GB
%nosave
#b3lyp/svp scf=(tight,noincore,xqc) Test 
#IOP(5/87=12) Density=Current Pop=(MK,readradii) iop(6/33=2) iop(6/42=6)

loop2.apoCaM-CA-Ng.Init293.run62.water5 

   -2  1 
   C     88.05000000    89.77000000    47.79000000
   C     89.07000000    88.97000000    48.60000000
   O     89.19000000    89.10000000    49.81000000
   H     87.17500000    89.97300000    48.40800000
   H     88.49600000    90.71200000    47.47200000
   H     87.75000000    89.19500000    46.91400000
   N     89.96000000    88.24000000    47.93000000
   C     91.03000000    87.50000000    48.57000000
   C     92.29000000    88.32000000    48.81000000
   O     92.86000000    88.30000000    49.90000000
   C     91.33000000    86.33000000    47.64000000
   C     92.28000000    85.30000000    48.25000000
   O     93.36000000    85.02000000    47.71000000
   O     91.87000000    84.69000000    49.27000000
   H     89.97000000    88.20000000    46.92000000
   H     90.74000000    87.06000000    49.52000000
   H     91.74000000    86.75000000    46.72000000
   H     90.43000000    85.82000000    47.29000000
   N     92.64000000    89.07000000    47.76000000
   C     93.57000000    90.17000000    47.83000000
   C     93.28000000    91.25000000    48.86000000
   O     94.08000000    92.07000000    49.30000000
   C     95.03000000    89.72000000    47.76000000
   H     92.53000000    88.74000000    46.81000000
   H     93.42000000    90.77000000    46.93000000
   H     95.73000000    90.49000000    47.44000000
   H     95.38000000    89.47000000    48.76000000
   H     95.20000000    88.86000000    47.10000000
   N     92.04000000    91.26000000    49.37000000
   C     91.55000000    92.01000000    50.50000000
   C     92.23000000    91.76000000    51.84000000
   O     92.47000000    92.61000000    52.69000000
   C     91.23000000    93.48000000    50.24000000
   C     90.32000000    93.71000000    49.05000000
   O     89.13000000    93.36000000    48.89000000
   O     90.68000000    94.43000000    48.09000000
   H     91.49000000    90.50000000    49.01000000
   H     90.52000000    91.68000000    50.65000000
   H     92.14000000    94.03000000    49.98000000
   H     90.78000000    93.81000000    51.18000000
   N     92.63000000    90.51000000    52.12000000
   C     93.35000000    89.98000000    53.26000000
   C     92.55000000    90.10000000    54.55000000
   O     91.32000000    90.02000000    54.48000000
   H     92.42000000    89.84000000    51.40000000
   H     94.32000000    90.45000000    53.42000000
   H     93.59000000    88.94000000    53.06000000
   N     93.25000000    90.34000000    55.66000000
   C     92.66000000    90.58000000    56.97000000
   C     91.64000000    89.54000000    57.42000000
   O     90.66000000    89.87000000    58.09000000
   C     92.16000000    92.01000000    57.10000000
   C     93.20000000    93.10000000    56.85000000
   N     93.36000000    93.48000000    55.58000000
   O     94.00000000    93.43000000    57.72000000
   H     94.25000000    90.35000000    55.56000000
   H     93.48000000    90.49000000    57.67000000
   H     91.77000000    92.24000000    58.09000000
   H     91.40000000    92.12000000    56.32000000
   H     92.73000000    93.20000000    54.84000000
   H     94.01000000    94.23000000    55.40000000
   N     91.75000000    88.28000000    57.02000000
   C     90.82000000    87.23000000    57.39000000
   C     89.81000000    86.78000000    56.35000000
   O     89.27000000    85.67000000    56.40000000
   H     92.66000000    87.99000000    56.68000000
   H     90.29000000    87.51000000    58.30000000
   H     91.39000000    86.35000000    57.69000000
   N     89.48000000    87.62000000    55.36000000
   C     88.60000000    87.28000000    54.26000000
   C     87.16000000    87.66000000    54.58000000
   O     86.94000000    88.85000000    54.74000000
   C     89.16000000    87.92000000    53.00000000
   C     90.55000000    87.50000000    52.55000000
   O     88.28000000    87.64000000    51.93000000
   H     90.04000000    88.46000000    55.38000000
   H     88.67000000    86.20000000    54.14000000
   H     89.13000000    89.01000000    53.13000000
   H     88.58000000    88.15000000    51.17000000
   H     90.85000000    88.22000000    51.79000000
   H     91.26000000    87.57000000    53.37000000
   H     90.54000000    86.47000000    52.19000000
   N     86.19000000    86.74000000    54.52000000
   C     84.78000000    86.85000000    54.83000000
   C     84.05000000    88.00000000    54.17000000
   O     84.41000000    88.37000000    53.05000000
   C     83.98000000    85.56000000    54.70000000
   C     84.38000000    84.88000000    53.39000000
   C     84.31000000    84.64000000    55.88000000
   C     83.42000000    83.77000000    52.98000000
   H     86.54000000    85.83000000    54.25000000
   H     84.81000000    87.09000000    55.89000000
   H     82.91000000    85.77000000    54.69000000
   H     85.42000000    84.58000000    53.29000000
   H     84.22000000    85.59000000    52.58000000
   H     83.72000000    83.73000000    55.84000000
   H     85.35000000    84.33000000    55.82000000
   H     84.19000000    85.21000000    56.81000000
   H     82.42000000    84.10000000    53.29000000
   H     83.42000000    83.57000000    51.91000000
   H     83.63000000    82.82000000    53.47000000
   N     83.08000000    88.54000000    54.91000000
   C     82.64000000    89.90000000    54.66000000
   C     83.36000000    90.81000000    55.65000000
   O     82.79000000    91.42000000    56.55000000
   C     81.14000000    89.89000000    54.94000000
   C     80.42000000    91.04000000    54.24000000
   O     79.22000000    91.19000000    54.55000000
   O     80.95000000    91.89000000    53.50000000
   H     82.85000000    88.20000000    55.83000000
   H     82.85000000    90.17000000    53.62000000
   H     80.90000000    89.88000000    56.00000000
   H     80.82000000    88.97000000    54.46000000
   N     84.69000000    90.94000000    55.54000000
   C     85.50000000    91.81000000    56.36000000
   C     85.25000000    91.72000000    57.86000000
   O     85.06000000    92.71000000    58.56000000
   C     86.99000000    91.89000000    56.04000000
   C     87.67000000    93.07000000    56.69000000
   C     88.42000000    92.92000000    57.87000000
   C     87.51000000    94.36000000    56.17000000
   C     89.13000000    94.02000000    58.38000000
   C     88.29000000    95.44000000    56.60000000
   C     89.14000000    95.24000000    57.69000000
   H     85.21000000    90.41000000    54.87000000
   H     85.14000000    92.79000000    56.03000000
   H     87.13000000    92.04000000    54.97000000
   H     87.51000000    90.95000000    56.25000000
   H     88.33000000    92.02000000    58.45000000
   H     86.85000000    94.51000000    55.33000000
   H     89.64000000    93.82000000    59.31000000
   H     88.16000000    96.42000000    56.17000000
   H     89.64000000    96.05000000    58.20000000
   N     85.33000000    90.54000000    58.50000000
   C     85.67000000    89.20000000    58.08000000
   C     84.65000000    88.18000000    58.57000000
   O     84.87000000    86.99000000    58.82000000
   C     86.98000000    88.93000000    58.80000000
   C     86.75000000    89.55000000    60.18000000
   C     85.71000000    90.63000000    59.89000000
   H     85.85000000    89.08000000    57.01000000
   H     87.18000000    87.86000000    58.87000000
   H     87.76000000    89.50000000    58.28000000
   H     86.38000000    88.85000000    60.93000000
   H     87.71000000    89.87000000    60.57000000
   H     84.86000000    90.55000000    60.57000000
   H     86.30000000    91.52000000    60.13000000
   N     83.41000000    88.66000000    58.66000000
   C     82.23000000    87.94000000    59.09000000
   C     81.66000000    86.91000000    58.12000000
   O     81.77000000    87.17000000    56.92000000
   C     81.17000000    88.86000000    59.67000000
   C     81.59000000    89.62000000    60.93000000
   C     80.52000000    90.47000000    61.60000000
   O     79.99000000    91.40000000    60.96000000
   O     80.15000000    90.27000000    62.78000000
   H     83.23000000    89.60000000    58.34000000
   H     82.57000000    87.32000000    59.92000000
   H     80.32000000    88.22000000    59.91000000
   H     80.94000000    89.61000000    58.91000000
   H     82.41000000    90.29000000    60.68000000
   H     81.95000000    88.86000000    61.63000000
   N     81.21000000    85.76000000    58.64000000
   C     80.47000000    84.84000000    57.80000000
   H     79.55400000    85.32000000    57.45600000
   H     81.07900000    84.56300000    56.94000000
   H     80.21900000    83.94600000    58.37200000
   H     81.43000000    85.51000000    59.59000000
  Ca     88.19000000    94.88000000    47.09000000
   O     87.03000000    96.25000000    45.07000000
   H     87.04000000    95.54000000    44.42000000
   H     86.38000000    96.87000000    44.73000000
   O     89.38000000    97.41000000    47.00000000
   H     89.06000000    97.88000000    46.23000000
   H     89.61000000    98.10000000    47.62000000
   O     87.38000000    96.41000000    49.12000000
   H     86.45000000    96.62000000    49.02000000
   H     87.57000000    96.62000000    50.03000000
   O     85.81000000    94.18000000    47.93000000
   H     85.09000000    94.78000000    47.76000000
   H     85.52000000    93.65000000    48.67000000
   O     90.08000000    94.54000000    45.00000000
   H     90.89000000    94.05000000    45.19000000
   H     90.29000000    95.05000000    44.22000000

Ca 1.00



