%chk=loop3.holoCaM.run63.water2.chk
%nprocshared=20
%mem=10GB
%nosave
#b3lyp/svp scf=(tight,noincore,xqc) Test 
#IOP(5/87=12) Density=Current Pop=(MK,readradii) iop(6/33=2) iop(6/42=6)

loop3.holoCaM.run63.water2 

   0  1 
   C     80.38000000    60.39000000    21.30000000
   C     80.93000000    61.78000000    21.59000000
   O     82.03000000    61.91000000    22.12000000
   H     79.43300000    60.47800000    20.76800000
   H     81.09100000    59.83800000    20.68500000
   H     80.22100000    59.85900000    22.23800000
   N     80.14000000    62.82000000    21.32000000
   C     80.24000000    64.21000000    21.74000000
   C     79.29000000    64.40000000    22.91000000
   O     78.07000000    64.28000000    22.88000000
   C     80.11000000    65.06000000    20.48000000
   C     80.07000000    66.54000000    20.79000000
   O     79.57000000    67.23000000    19.88000000
   O     80.44000000    67.02000000    21.88000000
   H     79.31000000    62.57000000    20.81000000
   H     81.27000000    64.33000000    22.06000000
   H     79.18000000    64.79000000    19.98000000
   H     80.95000000    64.79000000    19.83000000
   N     79.86000000    64.63000000    24.09000000
   C     79.26000000    64.62000000    25.41000000
   C     78.72000000    66.01000000    25.70000000
   O     77.96000000    66.11000000    26.66000000
   C     80.41000000    64.42000000    26.39000000
   C     81.06000000    63.05000000    26.24000000
   C     80.15000000    61.91000000    26.69000000
   C     80.94000000    60.64000000    26.97000000
   N     81.99000000    60.73000000    28.00000000
   H     80.85000000    64.83000000    24.05000000
   H     78.45000000    63.90000000    25.53000000
   H     80.04000000    64.62000000    27.40000000
   H     81.24000000    65.11000000    26.20000000
   H     81.89000000    63.07000000    26.95000000
   H     81.42000000    62.74000000    25.25000000
   H     79.41000000    61.75000000    25.91000000
   H     79.63000000    62.12000000    27.62000000
   H     81.47000000    60.39000000    26.05000000
   H     80.29000000    59.80000000    27.19000000
   H     82.29000000    59.84000000    28.36000000
   H     82.84000000    61.16000000    27.64000000
   H     81.63000000    61.28000000    28.76000000
   N     79.14000000    67.08000000    25.02000000
   C     78.64000000    68.44000000    25.12000000
   C     77.83000000    68.84000000    23.90000000
   O     77.02000000    69.76000000    24.06000000
   C     79.79000000    69.38000000    25.44000000
   C     81.05000000    69.23000000    24.60000000
   O     81.94000000    68.41000000    24.92000000
   O     81.17000000    69.87000000    23.54000000
   H     79.89000000    66.87000000    24.38000000
   H     77.94000000    68.48000000    25.96000000
   H     80.08000000    69.22000000    26.48000000
   H     79.42000000    70.40000000    25.36000000
   N     77.94000000    68.22000000    22.72000000
   C     77.11000000    68.59000000    21.60000000
   C     77.50000000    69.88000000    20.89000000
   O     76.63000000    70.53000000    20.32000000
   H     78.66000000    67.51000000    22.63000000
   H     76.05000000    68.70000000    21.82000000
   H     77.15000000    67.83000000    20.81000000
   N     78.79000000    70.22000000    20.94000000
   C     79.32000000    71.32000000    20.16000000
   C     79.59000000    70.88000000    18.73000000
   O     80.12000000    71.71000000    17.99000000
   C     80.58000000    71.87000000    20.81000000
   C     81.84000000    71.01000000    20.84000000
   N     82.96000000    71.59000000    21.28000000
   O     81.94000000    69.81000000    20.60000000
   H     79.37000000    69.59000000    21.48000000
   H     78.61000000    72.13000000    20.02000000
   H     80.34000000    72.15000000    21.83000000
   H     80.83000000    72.76000000    20.24000000
   H     82.94000000    72.59000000    21.40000000
   H     83.84000000    71.11000000    21.42000000
   N     79.50000000    69.58000000    18.41000000
   C     79.69000000    69.07000000    17.07000000
   C     81.09000000    68.58000000    16.75000000
   O     81.41000000    68.08000000    15.67000000
   H     79.37000000    68.90000000    19.14000000
   H     79.42000000    69.70000000    16.23000000
   H     78.97000000    68.24000000    17.04000000
   N     81.97000000    68.62000000    17.76000000
   C     83.31000000    68.07000000    17.70000000
   C     83.57000000    67.01000000    18.76000000
   O     83.01000000    67.01000000    19.85000000
   C     84.25000000    69.24000000    17.98000000
   C     84.24000000    70.45000000    17.08000000
   C     84.18000000    71.70000000    17.70000000
   C     84.19000000    70.31000000    15.69000000
   C     84.16000000    72.81000000    16.84000000
   C     84.18000000    71.41000000    14.82000000
   C     84.03000000    72.66000000    15.45000000
   O     83.95000000    73.90000000    14.87000000
   H     81.59000000    68.85000000    18.66000000
   H     83.54000000    67.62000000    16.73000000
   H     85.22000000    68.74000000    17.99000000
   H     84.04000000    69.61000000    18.98000000
   H     84.18000000    71.85000000    18.77000000
   H     84.11000000    69.34000000    15.22000000
   H     83.99000000    73.81000000    17.22000000
   H     84.23000000    71.34000000    13.74000000
   H     84.01000000    73.91000000    13.91000000
   N     84.45000000    66.05000000    18.49000000
   C     84.98000000    65.14000000    19.48000000
   C     86.41000000    65.48000000    19.88000000
   O     87.27000000    65.61000000    19.01000000
   C     84.85000000    63.69000000    19.01000000
   C     83.40000000    63.29000000    18.79000000
   C     85.45000000    62.67000000    19.97000000
   C     83.15000000    61.90000000    18.20000000
   H     85.00000000    66.07000000    17.64000000
   H     84.40000000    65.17000000    20.40000000
   H     85.33000000    63.59000000    18.03000000
   H     82.92000000    63.96000000    18.07000000
   H     82.97000000    63.38000000    19.78000000
   H     85.40000000    61.65000000    19.59000000
   H     86.46000000    63.06000000    20.14000000
   H     84.92000000    62.56000000    20.92000000
   H     82.08000000    61.79000000    18.03000000
   H     83.71000000    61.67000000    17.30000000
   H     83.58000000    61.11000000    18.82000000
   N     86.67000000    65.52000000    21.19000000
   C     88.01000000    65.72000000    21.70000000
   C     88.64000000    64.50000000    22.36000000
   O     87.98000000    63.48000000    22.56000000
   C     88.02000000    66.85000000    22.72000000
   O     87.11000000    66.77000000    23.80000000
   H     85.88000000    65.50000000    21.82000000
   H     88.68000000    65.99000000    20.89000000
   H     87.76000000    67.70000000    22.09000000
   H     89.00000000    67.08000000    23.16000000
   H     86.20000000    66.85000000    23.51000000
   N     89.90000000    64.63000000    22.80000000
   C     90.76000000    63.62000000    23.38000000
   C     90.16000000    62.85000000    24.55000000
   O     90.34000000    61.64000000    24.67000000
   C     92.01000000    64.43000000    23.72000000
   H     90.31000000    65.55000000    22.74000000
   H     91.02000000    62.96000000    22.55000000
   H     92.53000000    64.61000000    22.78000000
   H     91.83000000    65.37000000    24.23000000
   H     92.67000000    63.87000000    24.38000000
   N     89.49000000    63.58000000    25.44000000
   C     88.72000000    63.05000000    26.54000000
   C     87.45000000    62.29000000    26.17000000
   O     86.98000000    61.43000000    26.90000000
   C     88.33000000    64.24000000    27.41000000
   H     89.70000000    64.57000000    25.38000000
   H     89.40000000    62.44000000    27.13000000
   H     87.54000000    64.80000000    26.91000000
   H     87.96000000    63.92000000    28.38000000
   H     89.15000000    64.91000000    27.69000000
   N     86.88000000    62.65000000    25.01000000
   C     85.68000000    62.14000000    24.38000000
   C     86.03000000    60.92000000    23.54000000
   O     85.37000000    59.89000000    23.59000000
   C     84.97000000    63.30000000    23.69000000
   C     84.31000000    64.30000000    24.64000000
   C     83.73000000    65.39000000    23.73000000
   O     82.51000000    65.63000000    23.71000000
   O     84.48000000    66.13000000    23.07000000
   H     87.32000000    63.38000000    24.46000000
   H     84.92000000    61.79000000    25.08000000
   H     84.17000000    62.93000000    23.06000000
   H     85.69000000    63.79000000    23.05000000
   H     85.02000000    64.68000000    25.37000000
   H     83.55000000    63.76000000    25.20000000
   N     87.18000000    60.89000000    22.86000000
   C     87.85000000    59.79000000    22.20000000
   H     88.83300000    59.64300000    22.64700000
   H     87.25900000    58.88200000    22.31600000
   H     87.96400000    60.01700000    21.14000000
   H     87.59000000    61.80000000    22.70000000
  Ca     82.72000000    68.02000000    22.43000000
   O     84.52000000    69.66000000    24.33000000
   H     85.37000000    69.61000000    24.76000000
   H     83.92000000    69.93000000    25.03000000
   O     85.12000000    69.16000000    21.60000000
   H     85.58000000    69.56000000    20.86000000
   H     85.74000000    69.19000000    22.32000000

Ca 1.00



