%chk=loop4.holoCaM.run32.water2.chk
%nprocshared=20
%mem=10GB
%nosave
#b3lyp/svp scf=(tight,noincore,xqc) Test 
#IOP(5/87=12) Density=Current Pop=(MK,readradii) iop(6/33=2) iop(6/42=6)

loop4.holoCaM.run32.water2 

   -3  1 
   C     69.38000000    50.97000000    76.80000000
   C     69.59000000    52.44000000    77.10000000
   O     68.96000000    53.08000000    77.94000000
   H     68.48500000    50.84900000    76.19000000
   H     70.24300000    50.58200000    76.25900000
   H     69.25900000    50.42200000    77.73400000
   N     70.60000000    53.10000000    76.51000000
   C     70.76000000    54.54000000    76.55000000
   C     69.75000000    55.28000000    75.69000000
   O     69.50000000    54.93000000    74.53000000
   C     72.17000000    54.87000000    76.05000000
   C     72.42000000    56.33000000    75.73000000
   O     73.12000000    56.60000000    74.73000000
   O     71.98000000    57.21000000    76.50000000
   H     71.24000000    52.50000000    76.01000000
   H     70.54000000    54.86000000    77.57000000
   H     72.25000000    54.34000000    75.10000000
   H     72.99000000    54.58000000    76.71000000
   N     69.16000000    56.32000000    76.28000000
   C     68.09000000    57.14000000    75.76000000
   C     68.57000000    58.43000000    75.12000000
   O     67.80000000    58.94000000    74.31000000
   C     66.90000000    57.38000000    76.69000000
   C     67.06000000    58.25000000    77.94000000
   C     66.29000000    56.02000000    77.03000000
   C     65.72000000    58.74000000    78.48000000
   H     69.44000000    56.48000000    77.24000000
   H     67.74000000    56.63000000    74.86000000
   H     66.19000000    57.86000000    76.03000000
   H     67.72000000    59.07000000    77.67000000
   H     67.62000000    57.67000000    78.67000000
   H     65.28000000    56.16000000    77.42000000
   H     66.21000000    55.45000000    76.10000000
   H     66.90000000    55.36000000    77.64000000
   H     65.18000000    59.32000000    77.74000000
   H     65.12000000    57.91000000    78.85000000
   H     65.94000000    59.42000000    79.31000000
   N     69.84000000    58.82000000    75.30000000
   C     70.33000000    60.13000000    74.91000000
   C     71.25000000    60.14000000    73.70000000
   O     71.35000000    61.15000000    72.99000000
   C     70.97000000    60.78000000    76.12000000
   C     70.25000000    60.60000000    77.45000000
   O     69.21000000    61.19000000    77.81000000
   O     70.85000000    59.91000000    78.30000000
   H     70.43000000    58.21000000    75.84000000
   H     69.54000000    60.86000000    74.71000000
   H     71.13000000    61.85000000    75.95000000
   H     71.96000000    60.36000000    76.30000000
   N     72.06000000    59.11000000    73.46000000
   C     73.13000000    59.18000000    72.48000000
   C     74.52000000    59.43000000    73.06000000
   O     75.31000000    60.13000000    72.43000000
   H     71.99000000    58.28000000    74.03000000
   H     72.82000000    59.95000000    71.77000000
   H     73.14000000    58.29000000    71.85000000
   N     74.71000000    59.10000000    74.34000000
   C     75.99000000    59.14000000    75.01000000
   C     76.70000000    57.79000000    74.99000000
   O     77.92000000    57.80000000    75.10000000
   C     75.82000000    59.93000000    76.31000000
   C     74.89000000    59.20000000    77.27000000
   O     74.82000000    57.95000000    77.30000000
   O     74.23000000    59.92000000    78.05000000
   H     73.93000000    58.64000000    74.79000000
   H     76.71000000    59.75000000    74.48000000
   H     75.38000000    60.90000000    76.08000000
   H     76.76000000    60.11000000    76.82000000
   N     76.00000000    56.72000000    74.62000000
   C     76.37000000    55.32000000    74.71000000
   C     76.66000000    54.82000000    76.12000000
   O     77.41000000    53.86000000    76.28000000
   H     75.02000000    56.93000000    74.47000000
   H     77.29000000    55.11000000    74.17000000
   H     75.54000000    54.75000000    74.29000000
   N     76.22000000    55.52000000    77.16000000
   C     76.24000000    55.06000000    78.54000000
   C     74.92000000    55.09000000    79.29000000
   O     74.04000000    55.84000000    78.88000000
   C     77.25000000    55.95000000    79.27000000
   C     78.63000000    55.95000000    78.62000000
   C     79.68000000    56.57000000    79.53000000
   N     80.59000000    57.43000000    79.03000000
   O     79.72000000    56.28000000    80.72000000
   H     75.78000000    56.42000000    76.99000000
   H     76.65000000    54.07000000    78.68000000
   H     77.43000000    55.53000000    80.26000000
   H     76.84000000    56.96000000    79.40000000
   H     78.52000000    56.51000000    77.69000000
   H     79.01000000    54.94000000    78.48000000
   H     80.55000000    57.70000000    78.06000000
   H     81.32000000    57.85000000    79.59000000
   N     74.75000000    54.31000000    80.36000000
   C     73.53000000    54.30000000    81.14000000
   C     73.75000000    54.71000000    82.59000000
   O     74.66000000    54.24000000    83.26000000
   C     72.82000000    52.94000000    81.13000000
   C     72.31000000    52.78000000    79.70000000
   C     73.59000000    51.71000000    81.59000000
   H     75.48000000    53.69000000    80.68000000
   H     72.79000000    54.99000000    80.72000000
   H     71.99000000    53.04000000    81.82000000
   H     71.66000000    51.94000000    79.45000000
   H     71.81000000    53.69000000    79.36000000
   H     73.11000000    52.69000000    78.97000000
   H     73.91000000    51.74000000    82.63000000
   H     72.95000000    50.82000000    81.54000000
   H     74.43000000    51.45000000    80.95000000
   N     72.87000000    55.60000000    83.07000000
   C     72.71000000    56.01000000    84.44000000
   C     71.68000000    55.13000000    85.14000000
   O     71.02000000    54.30000000    84.52000000
   C     72.38000000    57.50000000    84.57000000
   C     70.88000000    57.70000000    84.47000000
   N     70.26000000    57.50000000    83.30000000
   O     70.21000000    58.00000000    85.46000000
   H     72.14000000    55.80000000    82.40000000
   H     73.72000000    55.94000000    84.85000000
   H     72.89000000    58.04000000    83.78000000
   H     72.79000000    57.83000000    85.53000000
   H     70.84000000    57.36000000    82.49000000
   H     69.34000000    57.84000000    83.09000000
   N     71.53000000    55.27000000    86.46000000
   C     70.66000000    54.43000000    87.26000000
   C     69.23000000    54.39000000    86.73000000
   O     68.60000000    53.33000000    86.64000000
   C     70.56000000    55.00000000    88.67000000
   C     69.36000000    54.53000000    89.46000000
   C     69.25000000    53.19000000    89.84000000
   C     68.25000000    55.37000000    89.60000000
   C     68.14000000    52.79000000    90.60000000
   C     67.08000000    54.97000000    90.27000000
   C     67.09000000    53.69000000    90.84000000
   O     65.99000000    53.28000000    91.55000000
   H     72.06000000    55.96000000    86.96000000
   H     71.11000000    53.44000000    87.35000000
   H     70.50000000    56.08000000    88.69000000
   H     71.40000000    54.57000000    89.23000000
   H     70.04000000    52.47000000    89.75000000
   H     68.25000000    56.36000000    89.17000000
   H     68.14000000    51.73000000    90.81000000
   H     66.29000000    55.68000000    90.46000000
   H     65.28000000    53.91000000    91.44000000
   N     68.73000000    55.52000000    86.23000000
   C     67.40000000    55.55000000    85.65000000
   C     67.28000000    54.94000000    84.26000000
   O     66.19000000    54.56000000    83.84000000
   C     66.97000000    57.01000000    85.58000000
   C     66.71000000    57.83000000    86.84000000
   C     66.02000000    59.15000000    86.52000000
   O     66.74000000    60.17000000    86.51000000
   O     64.79000000    59.20000000    86.29000000
   H     69.29000000    56.35000000    86.15000000
   H     66.77000000    54.97000000    86.32000000
   H     66.06000000    57.00000000    84.98000000
   H     67.62000000    57.57000000    84.91000000
   H     67.58000000    58.10000000    87.44000000
   H     66.10000000    57.17000000    87.46000000
   N     68.38000000    54.66000000    83.56000000
   C     68.29000000    53.80000000    82.40000000
   C     68.58000000    52.36000000    82.78000000
   O     67.99000000    51.47000000    82.17000000
   C     69.25000000    54.29000000    81.31000000
   C     68.99000000    55.63000000    80.63000000
   C     70.20000000    56.37000000    80.07000000
   O     71.15000000    56.72000000    80.80000000
   O     70.24000000    56.67000000    78.86000000
   H     69.28000000    54.97000000    83.91000000
   H     67.26000000    53.73000000    82.06000000
   H     69.47000000    53.51000000    80.58000000
   H     70.20000000    54.41000000    81.82000000
   H     68.55000000    56.22000000    81.43000000
   H     68.20000000    55.50000000    79.89000000
   N     69.48000000    52.09000000    83.73000000
   C     69.74000000    50.75000000    84.22000000
   H     70.63100000    50.76000000    84.84800000
   H     68.88700000    50.40500000    84.80500000
   H     69.89900000    50.07800000    83.37600000
   H     70.05000000    52.88000000    84.02000000
  Ca     72.48000000    58.08000000    78.79000000
   O     74.57000000    58.16000000    80.52000000
   H     75.41000000    57.72000000    80.48000000
   H     74.64000000    58.75000000    81.27000000
   O     71.54000000    59.82000000    81.18000000
   H     71.39000000    59.96000000    82.11000000
   H     70.70000000    60.01000000    80.77000000

Ca 1.00



