%chk=loop2.apoCaM-CA-Ng.Init31.run79.water6.chk
%nprocshared=20
%mem=10GB
%nosave
#b3lyp/svp scf=(tight,noincore,xqc) Test 
#IOP(5/87=12) Density=Current Pop=(MK,readradii) iop(6/33=2) iop(6/42=6)

loop2.apoCaM-CA-Ng.Init31.run79.water6 

   -2  1 
   C     59.73000000    32.87000000     9.35000000
   C     59.17000000    31.55000000     9.86000000
   O     57.97000000    31.28000000     9.86000000
   H     60.71700000    32.70300000     8.91800000
   H     59.06500000    33.27800000     8.58900000
   H     59.81100000    33.57500000    10.17700000
   N     59.99000000    30.67000000    10.45000000
   C     61.43000000    30.53000000    10.44000000
   C     61.98000000    29.78000000    11.65000000
   O     61.33000000    28.91000000    12.23000000
   C     61.88000000    29.91000000     9.12000000
   C     61.13000000    28.73000000     8.52000000
   O     61.09000000    28.57000000     7.28000000
   O     60.49000000    27.96000000     9.27000000
   H     59.52000000    29.86000000    10.83000000
   H     61.87000000    31.53000000    10.34000000
   H     62.92000000    29.60000000     9.20000000
   H     61.74000000    30.64000000     8.33000000
   N     63.25000000    30.02000000    11.96000000
   C     64.03000000    29.32000000    12.96000000
   C     63.70000000    29.67000000    14.40000000
   O     64.41000000    29.29000000    15.32000000
   C     65.53000000    29.38000000    12.65000000
   H     63.77000000    30.73000000    11.45000000
   H     63.73000000    28.28000000    12.81000000
   H     66.22000000    29.03000000    13.41000000
   H     65.67000000    28.78000000    11.75000000
   H     65.75000000    30.41000000    12.36000000
   N     62.59000000    30.39000000    14.59000000
   C     62.07000000    30.57000000    15.93000000
   C     61.68000000    29.25000000    16.58000000
   O     61.24000000    28.35000000    15.88000000
   C     60.86000000    31.50000000    15.99000000
   C     59.77000000    31.27000000    14.96000000
   O     59.83000000    30.45000000    14.01000000
   O     58.74000000    31.97000000    15.05000000
   H     61.91000000    30.39000000    13.84000000
   H     62.86000000    30.94000000    16.58000000
   H     61.28000000    32.49000000    15.78000000
   H     60.47000000    31.32000000    16.99000000
   N     61.79000000    29.17000000    17.91000000
   C     61.36000000    27.99000000    18.62000000
   C     59.86000000    27.77000000    18.83000000
   O     59.04000000    28.63000000    18.51000000
   H     62.20000000    29.93000000    18.44000000
   H     61.74000000    28.05000000    19.64000000
   H     61.75000000    27.15000000    18.05000000
   N     59.51000000    26.63000000    19.42000000
   C     58.18000000    26.45000000    19.99000000
   C     58.22000000    25.51000000    21.18000000
   O     58.47000000    24.31000000    21.06000000
   C     57.17000000    25.95000000    18.96000000
   C     55.71000000    25.90000000    19.38000000
   N     54.81000000    26.11000000    18.42000000
   O     55.29000000    25.66000000    20.51000000
   H     60.20000000    25.90000000    19.42000000
   H     57.81000000    27.43000000    20.29000000
   H     57.40000000    25.02000000    18.43000000
   H     57.23000000    26.73000000    18.21000000
   H     55.03000000    26.48000000    17.50000000
   H     53.86000000    26.14000000    18.76000000
   N     57.69000000    25.96000000    22.32000000
   C     57.48000000    25.33000000    23.61000000
   C     58.72000000    25.29000000    24.48000000
   O     59.49000000    24.33000000    24.42000000
   H     57.35000000    26.91000000    22.34000000
   H     57.30000000    24.28000000    23.37000000
   H     56.57000000    25.67000000    24.10000000
   N     58.95000000    26.30000000    25.32000000
   C     58.31000000    27.59000000    25.49000000
   C     59.28000000    28.77000000    25.41000000
   O     58.86000000    29.92000000    25.45000000
   C     57.53000000    27.69000000    26.79000000
   C     56.33000000    26.74000000    26.91000000
   O     58.35000000    27.29000000    27.86000000
   H     59.65000000    26.10000000    26.02000000
   H     57.61000000    27.72000000    24.66000000
   H     57.25000000    28.72000000    27.03000000
   H     58.62000000    28.07000000    28.36000000
   H     56.72000000    25.75000000    26.69000000
   H     55.79000000    26.76000000    27.85000000
   H     55.68000000    26.87000000    26.04000000
   N     60.61000000    28.62000000    25.33000000
   C     61.64000000    29.59000000    25.04000000
   C     61.77000000    30.63000000    26.14000000
   O     61.08000000    31.65000000    26.29000000
   C     61.48000000    30.16000000    23.63000000
   C     61.41000000    29.16000000    22.49000000
   C     62.64000000    31.14000000    23.45000000
   C     62.63000000    28.25000000    22.28000000
   H     60.93000000    27.71000000    25.65000000
   H     62.61000000    29.10000000    24.91000000
   H     60.56000000    30.75000000    23.61000000
   H     61.23000000    29.68000000    21.55000000
   H     60.53000000    28.54000000    22.67000000
   H     63.60000000    30.74000000    23.76000000
   H     62.71000000    31.41000000    22.40000000
   H     62.49000000    32.02000000    24.08000000
   H     63.50000000    28.86000000    22.03000000
   H     62.78000000    27.59000000    23.13000000
   H     62.31000000    27.55000000    21.51000000
   N     62.67000000    30.47000000    27.11000000
   C     63.45000000    29.28000000    27.36000000
   C     64.87000000    29.46000000    26.84000000
   O     65.34000000    28.79000000    25.92000000
   C     63.40000000    28.90000000    28.84000000
   C     63.68000000    29.94000000    29.92000000
   O     63.83000000    29.59000000    31.11000000
   O     63.50000000    31.14000000    29.61000000
   H     62.77000000    31.14000000    27.86000000
   H     63.05000000    28.40000000    26.87000000
   H     64.07000000    28.05000000    28.95000000
   H     62.36000000    28.69000000    29.08000000
   N     65.54000000    30.47000000    27.42000000
   C     66.89000000    30.84000000    27.03000000
   C     67.78000000    31.19000000    28.21000000
   O     67.44000000    31.98000000    29.09000000
   C     66.87000000    31.97000000    26.00000000
   C     66.14000000    33.25000000    26.35000000
   C     64.79000000    33.41000000    26.02000000
   C     66.87000000    34.29000000    26.96000000
   C     64.12000000    34.60000000    26.33000000
   C     66.18000000    35.45000000    27.32000000
   C     64.83000000    35.59000000    27.02000000
   H     65.16000000    30.81000000    28.28000000
   H     67.29000000    29.98000000    26.49000000
   H     66.29000000    31.52000000    25.19000000
   H     67.90000000    32.24000000    25.78000000
   H     64.24000000    32.59000000    25.60000000
   H     67.91000000    34.13000000    27.21000000
   H     63.08000000    34.71000000    26.04000000
   H     66.75000000    36.32000000    27.64000000
   H     64.26000000    36.49000000    27.21000000
   N     68.93000000    30.53000000    28.32000000
   C     69.82000000    30.10000000    27.25000000
   C     69.47000000    28.79000000    26.56000000
   O     68.62000000    28.05000000    27.06000000
   C     71.21000000    30.05000000    27.86000000
   C     70.90000000    29.61000000    29.29000000
   C     69.61000000    30.37000000    29.59000000
   H     69.74000000    30.87000000    26.49000000
   H     71.82000000    29.28000000    27.39000000
   H     71.76000000    30.99000000    27.96000000
   H     70.72000000    28.53000000    29.28000000
   H     71.66000000    30.01000000    29.96000000
   H     69.04000000    29.78000000    30.31000000
   H     69.91000000    31.29000000    30.09000000
   N     69.92000000    28.66000000    25.31000000
   C     69.51000000    27.73000000    24.28000000
   C     69.85000000    28.24000000    22.89000000
   O     70.79000000    27.74000000    22.28000000
   C     70.15000000    26.38000000    24.61000000
   C     69.55000000    25.17000000    23.89000000
   C     70.53000000    24.02000000    23.71000000
   O     70.70000000    23.27000000    24.69000000
   O     71.27000000    23.81000000    22.72000000
   H     70.52000000    29.42000000    25.03000000
   H     68.43000000    27.57000000    24.38000000
   H     70.01000000    26.07000000    25.64000000
   H     71.22000000    26.37000000    24.43000000
   H     69.13000000    25.46000000    22.92000000
   H     68.69000000    24.86000000    24.48000000
   N     69.15000000    29.25000000    22.37000000
   C     67.96000000    29.94000000    22.80000000
   H     67.14100000    29.22700000    22.89500000
   H     68.14200000    30.41300000    23.76500000
   H     67.69500000    30.70100000    22.06600000
   H     69.43000000    29.48000000    21.42000000
  Ca     59.52000000    27.85000000    13.86000000
   O     59.00000000    27.07000000    11.27000000
   H     58.10000000    27.19000000    10.94000000
   H     59.55000000    27.23000000    10.50000000
   O     58.15000000    28.54000000    16.17000000
   H     57.23000000    28.83000000    16.15000000
   H     58.36000000    28.45000000    17.10000000
   O     57.74000000    29.87000000    12.53000000
   H     58.23000000    30.58000000    12.95000000
   H     57.02000000    30.32000000    12.08000000
   O     59.44000000    25.93000000    15.62000000
   H     60.04000000    25.54000000    16.25000000
   H     58.66000000    25.37000000    15.65000000
   O     57.21000000    26.62000000    13.62000000
   H     56.55000000    26.23000000    14.20000000
   H     56.78000000    26.64000000    12.76000000
   O     61.08000000    25.76000000    12.99000000
   H     61.56000000    25.15000000    13.55000000
   H     61.20000000    25.41000000    12.10000000

Ca 1.00



