%chk=loop2.holoCaM-CaMKII.run29.water2.chk
%nprocshared=20
%mem=10GB
%nosave
#b3lyp/svp scf=(tight,noincore,xqc) Test 
#IOP(5/87=12) Density=Current Pop=(MK,readradii) iop(6/33=2) iop(6/42=6)

loop2.holoCaM-CaMKII.run29.water2 

   -2  1 
   C     77.47000000    53.81000000     7.38000000
   C     78.33000000    53.74000000     6.13000000
   O     79.23000000    54.57000000     6.02000000
   H     76.49000000    53.38200000     7.17000000
   H     77.94700000    53.24700000     8.18200000
   H     77.35400000    54.85000000     7.68400000
   N     78.16000000    52.77000000     5.23000000
   C     78.94000000    52.76000000     4.02000000
   C     78.67000000    53.82000000     2.96000000
   O     77.54000000    54.27000000     2.75000000
   C     78.84000000    51.35000000     3.44000000
   C     79.63000000    51.09000000     2.16000000
   O     78.98000000    50.59000000     1.22000000
   O     80.84000000    51.41000000     2.10000000
   H     77.37000000    52.15000000     5.36000000
   H     79.98000000    52.90000000     4.31000000
   H     77.77000000    51.19000000     3.31000000
   H     79.22000000    50.58000000     4.11000000
   N     79.71000000    54.13000000     2.19000000
   C     79.76000000    55.09000000     1.11000000
   C     80.68000000    54.65000000    -0.02000000
   O     80.84000000    55.39000000    -0.98000000
   C     80.27000000    56.36000000     1.78000000
   H     80.63000000    53.89000000     2.53000000
   H     78.76000000    55.25000000     0.71000000
   H     80.74000000    57.03000000     1.07000000
   H     79.42000000    56.90000000     2.19000000
   H     80.91000000    56.14000000     2.64000000
   N     81.33000000    53.48000000     0.04000000
   C     82.23000000    53.03000000    -1.00000000
   C     82.01000000    51.68000000    -1.66000000
   O     82.38000000    51.35000000    -2.78000000
   C     83.68000000    53.19000000    -0.52000000
   C     84.06000000    52.33000000     0.67000000
   O     83.75000000    51.12000000     0.68000000
   O     84.38000000    52.94000000     1.71000000
   H     81.25000000    52.86000000     0.83000000
   H     82.02000000    53.68000000    -1.85000000
   H     83.72000000    54.23000000    -0.18000000
   H     84.31000000    53.02000000    -1.39000000
   N     81.33000000    50.80000000    -0.91000000
   C     80.97000000    49.46000000    -1.32000000
   C     82.01000000    48.37000000    -1.09000000
   O     81.77000000    47.21000000    -1.42000000
   H     81.20000000    51.18000000     0.01000000
   H     80.53000000    49.38000000    -2.32000000
   H     80.15000000    49.16000000    -0.68000000
   N     83.05000000    48.58000000    -0.27000000
   C     84.09000000    47.61000000    -0.02000000
   C     83.78000000    46.60000000     1.06000000
   O     84.62000000    45.77000000     1.42000000
   C     85.35000000    48.43000000     0.27000000
   C     85.43000000    49.09000000     1.64000000
   N     86.59000000    49.71000000     1.91000000
   O     84.57000000    49.02000000     2.52000000
   H     83.22000000    49.51000000     0.08000000
   H     84.25000000    47.00000000    -0.91000000
   H     85.46000000    49.13000000    -0.55000000
   H     86.19000000    47.74000000     0.26000000
   H     87.24000000    49.73000000     1.14000000
   H     86.63000000    50.27000000     2.74000000
   N     82.56000000    46.48000000     1.60000000
   C     82.12000000    45.50000000     2.57000000
   C     82.70000000    45.62000000     3.98000000
   O     82.38000000    44.76000000     4.80000000
   H     81.88000000    47.15000000     1.27000000
   H     82.43000000    44.53000000     2.18000000
   H     81.04000000    45.43000000     2.66000000
   N     83.43000000    46.71000000     4.25000000
   C     84.30000000    46.97000000     5.37000000
   C     84.26000000    48.37000000     5.97000000
   O     84.27000000    49.38000000     5.26000000
   C     85.75000000    46.58000000     5.12000000
   C     85.93000000    45.11000000     4.74000000
   O     86.44000000    47.31000000     4.13000000
   H     83.38000000    47.46000000     3.58000000
   H     84.00000000    46.30000000     6.17000000
   H     86.34000000    46.85000000     6.00000000
   H     85.92000000    48.07000000     3.84000000
   H     85.70000000    44.94000000     3.69000000
   H     86.98000000    44.86000000     4.85000000
   H     85.47000000    44.52000000     5.54000000
   N     84.20000000    48.47000000     7.30000000
   C     84.27000000    49.77000000     7.95000000
   C     85.64000000    50.42000000     7.76000000
   O     86.62000000    50.02000000     8.39000000
   C     83.99000000    49.71000000     9.45000000
   C     82.86000000    48.74000000     9.79000000
   C     83.73000000    51.09000000    10.03000000
   C     82.65000000    48.59000000    11.29000000
   H     84.16000000    47.64000000     7.86000000
   H     83.51000000    50.41000000     7.51000000
   H     84.87000000    49.31000000     9.95000000
   H     83.15000000    47.76000000     9.41000000
   H     81.94000000    49.10000000     9.35000000
   H     82.69000000    51.39000000     9.89000000
   H     84.00000000    51.02000000    11.08000000
   H     84.40000000    51.87000000     9.68000000
   H     83.54000000    48.16000000    11.76000000
   H     82.38000000    49.55000000    11.72000000
   H     81.87000000    47.86000000    11.53000000
   N     85.68000000    51.54000000     7.04000000
   C     86.79000000    52.46000000     6.91000000
   C     86.73000000    53.52000000     8.01000000
   O     85.70000000    53.75000000     8.63000000
   C     86.95000000    53.05000000     5.51000000
   C     86.80000000    52.10000000     4.33000000
   O     85.69000000    51.63000000     4.04000000
   O     87.81000000    51.78000000     3.67000000
   H     84.83000000    51.85000000     6.59000000
   H     87.75000000    51.99000000     7.07000000
   H     87.89000000    53.60000000     5.47000000
   H     86.12000000    53.74000000     5.34000000
   N     87.89000000    54.16000000     8.20000000
   C     87.94000000    55.10000000     9.30000000
   C     86.98000000    56.28000000     9.22000000
   O     86.30000000    56.51000000    10.22000000
   C     89.41000000    55.46000000     9.48000000
   C     89.66000000    56.32000000    10.70000000
   C     90.50000000    57.43000000    10.69000000
   C     89.15000000    55.84000000    11.91000000
   C     90.87000000    58.03000000    11.90000000
   C     89.45000000    56.50000000    13.11000000
   C     90.40000000    57.53000000    13.12000000
   H     88.72000000    53.87000000     7.70000000
   H     87.56000000    54.53000000    10.15000000
   H     89.65000000    56.02000000     8.57000000
   H     89.95000000    54.52000000     9.57000000
   H     90.89000000    57.75000000     9.73000000
   H     88.63000000    54.89000000    11.92000000
   H     91.61000000    58.81000000    12.01000000
   H     89.06000000    56.07000000    14.02000000
   H     90.68000000    57.93000000    14.08000000
   N     86.78000000    56.92000000     8.06000000
   C     85.76000000    57.92000000     7.83000000
   C     84.38000000    57.40000000     8.22000000
   O     83.53000000    58.20000000     8.61000000
   C     85.76000000    58.38000000     6.38000000
   C     87.19000000    58.06000000     5.96000000
   C     87.52000000    56.85000000     6.82000000
   H     86.06000000    58.75000000     8.47000000
   H     85.03000000    57.93000000     5.70000000
   H     85.73000000    59.47000000     6.43000000
   H     87.27000000    57.90000000     4.88000000
   H     87.85000000    58.87000000     6.28000000
   H     87.38000000    55.96000000     6.20000000
   H     88.59000000    56.87000000     7.06000000
   N     84.11000000    56.10000000     8.19000000
   C     82.81000000    55.57000000     8.53000000
   C     82.77000000    55.07000000     9.97000000
   O     81.69000000    55.21000000    10.54000000
   C     82.51000000    54.41000000     7.58000000
   C     82.82000000    54.74000000     6.12000000
   C     82.80000000    53.52000000     5.22000000
   O     82.34000000    53.59000000     4.06000000
   O     83.13000000    52.39000000     5.66000000
   H     84.76000000    55.41000000     7.84000000
   H     82.06000000    56.36000000     8.49000000
   H     81.50000000    54.01000000     7.63000000
   H     83.19000000    53.59000000     7.83000000
   H     83.81000000    55.12000000     5.89000000
   H     82.09000000    55.46000000     5.73000000
   N     83.91000000    54.75000000    10.58000000
   C     83.98000000    54.46000000    12.00000000
   H     84.26100000    55.36300000    12.54100000
   H     83.00700000    54.11500000    12.34900000
   H     84.72600000    53.68500000    12.17700000
   H     84.78000000    54.73000000    10.06000000
  Ca     83.23000000    51.16000000     3.36000000
   O     81.43000000    50.44000000     5.81000000
   H     82.05000000    51.07000000     6.17000000
   H     80.69000000    50.47000000     6.42000000
   O     81.66000000    49.01000000     3.47000000
   H     81.03000000    48.70000000     2.82000000
   H     81.12000000    49.26000000     4.23000000

Ca 1.00



