%chk=loop2.holoCaM-CaMKII.run48.water2.chk
%nprocshared=20
%mem=10GB
%nosave
#b3lyp/svp scf=(tight,noincore,xqc) Test 
#IOP(5/87=12) Density=Current Pop=(MK,readradii) iop(6/33=2) iop(6/42=6)

loop2.holoCaM-CaMKII.run48.water2 

   -2  1 
   C      9.55000000    52.10000000    22.48000000
   C      8.53000000    51.61000000    21.47000000
   O      8.83000000    51.71000000    20.28000000
   H     10.41500000    52.50500000    21.95500000
   H      9.10400000    52.87900000    23.09900000
   H      9.86500000    51.26900000    23.11100000
   N      7.39000000    51.03000000    21.87000000
   C      6.60000000    50.16000000    21.02000000
   C      5.57000000    50.88000000    20.16000000
   O      4.85000000    51.77000000    20.61000000
   C      5.85000000    49.10000000    21.82000000
   C      5.08000000    48.07000000    21.02000000
   O      3.99000000    47.67000000    21.47000000
   O      5.51000000    47.72000000    19.90000000
   H      7.24000000    51.08000000    22.86000000
   H      7.31000000    49.66000000    20.36000000
   H      5.21000000    49.57000000    22.57000000
   H      6.60000000    48.74000000    22.53000000
   N      5.35000000    50.34000000    18.96000000
   C      4.18000000    50.64000000    18.16000000
   C      3.42000000    49.52000000    17.47000000
   O      2.77000000    49.76000000    16.45000000
   C      4.60000000    51.72000000    17.17000000
   H      5.91000000    49.55000000    18.67000000
   H      3.43000000    51.04000000    18.84000000
   H      3.75000000    52.31000000    16.83000000
   H      5.31000000    52.30000000    17.76000000
   H      5.20000000    51.24000000    16.40000000
   N      3.52000000    48.26000000    17.91000000
   C      2.82000000    47.17000000    17.25000000
   C      2.33000000    46.07000000    18.19000000
   O      1.71000000    45.11000000    17.75000000
   C      3.78000000    46.52000000    16.26000000
   C      5.05000000    46.17000000    17.02000000
   O      5.11000000    45.40000000    18.00000000
   O      6.12000000    46.62000000    16.56000000
   H      4.20000000    47.97000000    18.59000000
   H      1.92000000    47.53000000    16.75000000
   H      3.98000000    47.13000000    15.37000000
   H      3.40000000    45.56000000    15.92000000
   N      2.65000000    46.14000000    19.48000000
   C      2.21000000    45.17000000    20.47000000
   C      2.77000000    43.76000000    20.38000000
   O      2.28000000    42.93000000    21.14000000
   H      3.29000000    46.81000000    19.89000000
   H      1.14000000    45.30000000    20.59000000
   H      2.53000000    45.53000000    21.45000000
   N      3.65000000    43.48000000    19.41000000
   C      4.14000000    42.13000000    19.25000000
   C      4.86000000    41.48000000    20.42000000
   O      4.86000000    40.26000000    20.56000000
   C      4.93000000    42.11000000    17.94000000
   C      6.33000000    42.72000000    17.94000000
   N      6.99000000    42.77000000    16.78000000
   O      6.73000000    43.32000000    18.93000000
   H      3.99000000    44.24000000    18.84000000
   H      3.29000000    41.45000000    19.19000000
   H      4.47000000    42.54000000    17.06000000
   H      5.17000000    41.10000000    17.59000000
   H      6.64000000    42.22000000    16.01000000
   H      7.92000000    43.16000000    16.74000000
   N      5.31000000    42.31000000    21.37000000
   C      6.07000000    41.90000000    22.54000000
   C      7.58000000    41.80000000    22.38000000
   O      8.22000000    41.30000000    23.31000000
   H      5.23000000    43.31000000    21.28000000
   H      5.72000000    40.92000000    22.85000000
   H      5.96000000    42.64000000    23.33000000
   N      8.12000000    42.35000000    21.29000000
   C      9.55000000    42.42000000    21.04000000
   C      9.96000000    43.76000000    20.45000000
   O      9.20000000    44.40000000    19.73000000
   C      9.81000000    41.42000000    19.91000000
   C      9.64000000    40.00000000    20.44000000
   O      8.95000000    41.45000000    18.80000000
   H      7.49000000    42.68000000    20.57000000
   H     10.15000000    42.24000000    21.93000000
   H     10.85000000    41.56000000    19.62000000
   H      9.04000000    42.24000000    18.26000000
   H      8.66000000    39.83000000    20.88000000
   H      9.76000000    39.28000000    19.63000000
   H     10.37000000    39.75000000    21.21000000
   N     11.23000000    44.14000000    20.60000000
   C     11.82000000    45.27000000    19.92000000
   C     12.02000000    44.97000000    18.44000000
   O     12.66000000    43.97000000    18.12000000
   C     13.08000000    45.84000000    20.58000000
   C     12.53000000    46.35000000    21.91000000
   C     13.72000000    46.87000000    19.66000000
   C     13.70000000    46.94000000    22.70000000
   H     11.82000000    43.50000000    21.10000000
   H     11.12000000    46.11000000    19.90000000
   H     13.87000000    45.09000000    20.68000000
   H     12.14000000    45.57000000    22.56000000
   H     11.73000000    47.05000000    21.71000000
   H     14.53000000    47.38000000    20.18000000
   H     14.13000000    46.45000000    18.75000000
   H     13.02000000    47.64000000    19.31000000
   H     14.50000000    46.21000000    22.79000000
   H     13.94000000    47.86000000    22.17000000
   H     13.32000000    47.23000000    23.69000000
   N     11.50000000    45.80000000    17.53000000
   C     11.86000000    45.94000000    16.13000000
   C     13.03000000    46.88000000    15.93000000
   O     13.26000000    47.81000000    16.71000000
   C     10.60000000    46.30000000    15.34000000
   C      9.44000000    45.36000000    15.61000000
   O      8.76000000    45.48000000    16.65000000
   O      9.15000000    44.50000000    14.74000000
   H     10.95000000    46.53000000    17.95000000
   H     12.24000000    44.96000000    15.85000000
   H     10.84000000    46.16000000    14.28000000
   H     10.32000000    47.35000000    15.44000000
   N     13.71000000    46.80000000    14.78000000
   C     14.81000000    47.65000000    14.36000000
   C     14.35000000    49.10000000    14.24000000
   O     14.99000000    49.96000000    14.83000000
   C     15.49000000    47.07000000    13.12000000
   C     16.63000000    47.95000000    12.67000000
   C     16.42000000    48.90000000    11.66000000
   C     17.86000000    47.95000000    13.33000000
   C     17.51000000    49.64000000    11.18000000
   C     18.91000000    48.83000000    13.01000000
   C     18.72000000    49.64000000    11.88000000
   H     13.59000000    45.97000000    14.23000000
   H     15.60000000    47.61000000    15.10000000
   H     14.85000000    46.89000000    12.25000000
   H     15.82000000    46.09000000    13.44000000
   H     15.48000000    49.15000000    11.19000000
   H     17.90000000    47.34000000    14.21000000
   H     17.31000000    50.39000000    10.43000000
   H     19.85000000    48.81000000    13.53000000
   H     19.43000000    50.37000000    11.50000000
   N     13.27000000    49.54000000    13.59000000
   C     12.83000000    50.91000000    13.67000000
   C     12.68000000    51.44000000    15.10000000
   O     13.00000000    52.60000000    15.33000000
   C     11.52000000    50.96000000    12.89000000
   C     11.58000000    49.78000000    11.92000000
   C     12.38000000    48.77000000    12.74000000
   H     13.61000000    51.42000000    13.10000000
   H     10.76000000    50.95000000    13.67000000
   H     11.39000000    51.97000000    12.50000000
   H     10.61000000    49.33000000    11.72000000
   H     12.21000000    49.98000000    11.06000000
   H     11.81000000    48.05000000    13.32000000
   H     12.98000000    48.12000000    12.11000000
   N     12.24000000    50.60000000    16.04000000
   C     12.17000000    50.94000000    17.44000000
   C     13.52000000    51.06000000    18.14000000
   O     13.67000000    51.90000000    19.02000000
   C     11.28000000    50.00000000    18.25000000
   C      9.89000000    49.88000000    17.63000000
   C      9.07000000    48.73000000    18.20000000
   O      7.83000000    48.87000000    18.11000000
   O      9.58000000    47.66000000    18.61000000
   H     12.12000000    49.65000000    15.72000000
   H     11.68000000    51.91000000    17.58000000
   H     11.11000000    50.25000000    19.30000000
   H     11.77000000    49.03000000    18.26000000
   H      9.98000000    49.69000000    16.56000000
   H      9.31000000    50.80000000    17.69000000
   N     14.43000000    50.17000000    17.75000000
   C     15.79000000    50.10000000    18.26000000
   H     16.41500000    50.81600000    17.72700000
   H     15.79200000    50.33800000    19.32400000
   H     16.18300000    49.09400000    18.11100000
   H     14.19000000    49.49000000    17.04000000
  Ca      7.41000000    46.09000000    18.82000000
   O      8.34000000    46.99000000    21.32000000
   H      8.48000000    47.00000000    22.27000000
   H      8.85000000    47.74000000    21.00000000
   O      6.24000000    45.20000000    21.16000000
   H      5.53000000    45.79000000    20.90000000
   H      6.14000000    45.10000000    22.11000000

Ca 1.00



