%chk=loop4.holoCaM.run10.water2.chk
%nprocshared=20
%mem=10GB
%nosave
#b3lyp/svp scf=(tight,noincore,xqc) Test 
#IOP(5/87=12) Density=Current Pop=(MK,readradii) iop(6/33=2) iop(6/42=6)

loop4.holoCaM.run10.water2 

   -3  1 
   C     28.29000000    34.67000000    18.69000000
   C     29.19000000    33.51000000    19.12000000
   O     30.16000000    33.26000000    18.41000000
   H     27.37300000    34.65500000    19.27900000
   H     28.81000000    35.61400000    18.85200000
   H     28.04400000    34.56700000    17.63300000
   N     28.72000000    32.74000000    20.11000000
   C     29.28000000    31.46000000    20.49000000
   C     28.75000000    30.33000000    19.62000000
   O     27.55000000    30.13000000    19.47000000
   C     29.10000000    31.24000000    21.99000000
   C     29.72000000    29.96000000    22.54000000
   O     30.73000000    29.43000000    22.05000000
   O     29.33000000    29.56000000    23.66000000
   H     27.90000000    33.05000000    20.61000000
   H     30.33000000    31.57000000    20.24000000
   H     28.05000000    31.29000000    22.28000000
   H     29.49000000    32.12000000    22.51000000
   N     29.72000000    29.64000000    19.02000000
   C     29.56000000    28.63000000    17.99000000
   C     29.50000000    27.21000000    18.52000000
   O     28.46000000    26.59000000    18.28000000
   C     30.57000000    28.86000000    16.86000000
   C     30.39000000    30.22000000    16.19000000
   C     30.64000000    27.78000000    15.79000000
   C     29.02000000    30.58000000    15.62000000
   H     30.67000000    29.90000000    19.25000000
   H     28.60000000    28.75000000    17.48000000
   H     31.55000000    28.76000000    17.34000000
   H     31.16000000    30.34000000    15.42000000
   H     30.64000000    30.89000000    17.01000000
   H     31.60000000    27.92000000    15.29000000
   H     30.60000000    26.79000000    16.23000000
   H     29.76000000    27.85000000    15.15000000
   H     28.60000000    29.79000000    15.01000000
   H     28.41000000    30.82000000    16.49000000
   H     29.07000000    31.50000000    15.04000000
   N     30.58000000    26.80000000    19.19000000
   C     30.75000000    25.50000000    19.80000000
   C     30.22000000    25.34000000    21.23000000
   O     29.99000000    24.26000000    21.75000000
   C     32.24000000    25.17000000    19.79000000
   C     33.29000000    26.19000000    20.22000000
   O     34.50000000    25.97000000    20.00000000
   O     32.82000000    27.28000000    20.61000000
   H     31.27000000    27.50000000    19.42000000
   H     30.16000000    24.82000000    19.19000000
   H     32.44000000    25.04000000    18.73000000
   H     32.41000000    24.26000000    20.36000000
   N     29.83000000    26.44000000    21.88000000
   C     28.98000000    26.45000000    23.05000000
   C     29.79000000    26.32000000    24.33000000
   O     29.49000000    25.47000000    25.17000000
   H     30.05000000    27.33000000    21.47000000
   H     28.19000000    25.71000000    22.97000000
   H     28.46000000    27.41000000    23.07000000
   N     30.68000000    27.27000000    24.60000000
   C     31.53000000    27.36000000    25.77000000
   C     31.49000000    28.66000000    26.56000000
   O     32.05000000    28.74000000    27.65000000
   C     32.95000000    27.15000000    25.27000000
   C     33.40000000    28.18000000    24.23000000
   O     33.04000000    29.38000000    24.19000000
   O     34.14000000    27.77000000    23.32000000
   H     30.64000000    28.05000000    23.95000000
   H     31.19000000    26.65000000    26.52000000
   H     32.98000000    26.18000000    24.78000000
   H     33.59000000    27.02000000    26.14000000
   N     30.69000000    29.61000000    26.05000000
   C     30.29000000    30.87000000    26.65000000
   C     31.02000000    32.13000000    26.22000000
   O     30.85000000    33.22000000    26.78000000
   H     30.30000000    29.44000000    25.14000000
   H     30.34000000    30.77000000    27.73000000
   H     29.26000000    31.01000000    26.31000000
   N     32.06000000    31.99000000    25.40000000
   C     33.03000000    32.97000000    24.94000000
   C     33.10000000    33.05000000    23.43000000
   O     32.91000000    32.07000000    22.70000000
   C     34.38000000    32.55000000    25.51000000
   C     34.27000000    32.73000000    27.02000000
   C     35.59000000    32.94000000    27.74000000
   N     36.49000000    31.95000000    27.73000000
   O     35.88000000    34.01000000    28.26000000
   H     32.28000000    31.07000000    25.02000000
   H     32.78000000    33.96000000    25.32000000
   H     35.14000000    33.18000000    25.05000000
   H     34.48000000    31.49000000    25.27000000
   H     33.72000000    31.89000000    27.45000000
   H     33.75000000    33.65000000    27.28000000
   H     36.39000000    31.12000000    27.16000000
   H     37.37000000    32.11000000    28.21000000
   N     33.67000000    34.16000000    22.96000000
   C     34.31000000    34.13000000    21.66000000
   C     35.83000000    33.97000000    21.67000000
   O     36.49000000    34.71000000    22.40000000
   C     33.83000000    35.27000000    20.76000000
   C     32.38000000    35.00000000    20.35000000
   C     34.01000000    36.57000000    21.53000000
   H     33.96000000    34.86000000    23.63000000
   H     34.02000000    33.22000000    21.14000000
   H     34.41000000    35.36000000    19.85000000
   H     31.73000000    34.92000000    21.23000000
   H     32.15000000    35.68000000    19.53000000
   H     32.41000000    34.00000000    19.93000000
   H     35.05000000    36.62000000    21.85000000
   H     33.70000000    37.49000000    21.03000000
   H     33.41000000    36.59000000    22.43000000
   N     36.29000000    33.15000000    20.73000000
   C     37.60000000    33.14000000    20.12000000
   C     37.67000000    33.91000000    18.81000000
   O     36.64000000    34.43000000    18.37000000
   C     37.99000000    31.67000000    19.96000000
   C     37.85000000    31.13000000    18.55000000
   N     36.70000000    30.68000000    18.06000000
   O     38.88000000    31.10000000    17.88000000
   H     35.49000000    32.70000000    20.29000000
   H     38.28000000    33.54000000    20.87000000
   H     37.39000000    31.05000000    20.62000000
   H     39.01000000    31.64000000    20.36000000
   H     35.89000000    30.81000000    18.66000000
   H     36.62000000    30.15000000    17.20000000
   N     38.82000000    34.14000000    18.17000000
   C     38.98000000    34.85000000    16.92000000
   C     38.08000000    34.35000000    15.80000000
   O     37.57000000    35.21000000    15.08000000
   C     40.43000000    34.65000000    16.49000000
   C     40.86000000    35.61000000    15.41000000
   C     41.24000000    36.90000000    15.80000000
   C     40.70000000    35.32000000    14.05000000
   C     41.40000000    37.91000000    14.85000000
   C     40.88000000    36.31000000    13.07000000
   C     41.21000000    37.62000000    13.48000000
   O     41.22000000    38.64000000    12.58000000
   H     39.67000000    33.92000000    18.66000000
   H     38.88000000    35.91000000    17.17000000
   H     40.56000000    33.61000000    16.17000000
   H     41.12000000    34.82000000    17.31000000
   H     41.40000000    37.15000000    16.84000000
   H     40.44000000    34.33000000    13.69000000
   H     41.60000000    38.94000000    15.09000000
   H     40.67000000    36.09000000    12.03000000
   H     41.04000000    38.36000000    11.68000000
   N     37.92000000    33.04000000    15.55000000
   C     37.01000000    32.50000000    14.56000000
   C     35.55000000    32.85000000    14.78000000
   O     34.77000000    32.87000000    13.83000000
   C     37.15000000    30.99000000    14.42000000
   C     36.45000000    30.30000000    13.26000000
   C     36.83000000    28.83000000    13.26000000
   O     36.09000000    28.05000000    13.90000000
   O     37.84000000    28.42000000    12.63000000
   H     38.36000000    32.41000000    16.21000000
   H     37.27000000    32.92000000    13.59000000
   H     36.82000000    30.58000000    15.37000000
   H     38.23000000    30.83000000    14.40000000
   H     36.68000000    30.84000000    12.34000000
   H     35.41000000    30.54000000    13.44000000
   N     35.20000000    33.26000000    16.00000000
   C     33.92000000    33.82000000    16.37000000
   C     33.78000000    35.33000000    16.45000000
   O     32.80000000    35.99000000    16.10000000
   C     33.62000000    33.22000000    17.75000000
   C     33.45000000    31.71000000    17.59000000
   C     33.48000000    31.04000000    18.96000000
   O     34.45000000    31.18000000    19.73000000
   O     32.59000000    30.20000000    19.24000000
   H     35.83000000    33.11000000    16.78000000
   H     33.21000000    33.44000000    15.64000000
   H     32.63000000    33.62000000    17.95000000
   H     34.42000000    33.44000000    18.45000000
   H     34.24000000    31.23000000    17.01000000
   H     32.49000000    31.54000000    17.11000000
   N     34.86000000    36.01000000    16.83000000
   C     34.99000000    37.45000000    16.82000000
   H     35.91200000    37.72700000    16.30800000
   H     34.13900000    37.88900000    16.29800000
   H     35.01900000    37.82000000    17.84500000
   H     35.64000000    35.42000000    17.08000000
  Ca     33.26000000    29.62000000    21.67000000
   O     35.68000000    30.40000000    22.93000000
   H     35.83000000    31.09000000    23.58000000
   H     36.10000000    29.62000000    23.30000000
   O     35.59000000    28.52000000    20.58000000
   H     35.24000000    27.63000000    20.49000000
   H     36.51000000    28.43000000    20.35000000

Ca 1.00



