%chk=loop2.apoCaM-CA-Ng.Init295.run79.water3.chk
%nprocshared=20
%mem=10GB
%nosave
#b3lyp/svp scf=(tight,noincore,xqc) Test 
#IOP(5/87=12) Density=Current Pop=(MK,readradii) iop(6/33=2) iop(6/42=6)

loop2.apoCaM-CA-Ng.Init295.run79.water3 

   -2  1 
   C     18.47000000    -0.95000000    51.32000000
   C     18.95000000    -0.16000000    52.53000000
   O     19.33000000     1.01000000    52.46000000
   H     17.58400000    -0.47200000    50.90300000
   H     19.25700000    -0.97600000    50.56700000
   H     18.22400000    -1.96700000    51.62400000
   N     19.05000000    -0.80000000    53.70000000
   C     19.48000000    -0.15000000    54.92000000
   C     18.40000000     0.62000000    55.67000000
   O     18.75000000     1.44000000    56.53000000
   C     20.12000000    -1.21000000    55.81000000
   C     21.40000000    -0.84000000    56.54000000
   O     22.18000000    -1.74000000    56.94000000
   O     21.66000000     0.35000000    56.83000000
   H     18.61000000    -1.70000000    53.78000000
   H     20.21000000     0.60000000    54.61000000
   H     20.38000000    -2.06000000    55.18000000
   H     19.40000000    -1.58000000    56.55000000
   N     17.13000000     0.44000000    55.32000000
   C     15.95000000     1.19000000    55.70000000
   C     14.66000000     0.38000000    55.62000000
   O     14.35000000    -0.15000000    54.55000000
   C     15.91000000     2.51000000    54.93000000
   H     16.97000000    -0.29000000    54.64000000
   H     16.11000000     1.53000000    56.72000000
   H     15.77000000     2.35000000    53.87000000
   H     15.08000000     3.19000000    55.11000000
   H     16.86000000     3.05000000    55.02000000
   N     13.76000000     0.35000000    56.60000000
   C     13.61000000     1.12000000    57.82000000
   C     13.04000000     0.33000000    59.00000000
   O     12.09000000    -0.40000000    58.74000000
   C     12.78000000     2.33000000    57.41000000
   C     12.66000000     3.46000000    58.43000000
   O     13.37000000     3.47000000    59.46000000
   O     11.93000000     4.45000000    58.24000000
   H     12.95000000    -0.25000000    56.48000000
   H     14.58000000     1.47000000    58.18000000
   H     11.76000000     1.97000000    57.39000000
   H     13.13000000     2.87000000    56.53000000
   N     13.39000000     0.66000000    60.25000000
   C     12.86000000     0.05000000    61.45000000
   C     13.67000000    -1.09000000    62.05000000
   O     14.90000000    -1.02000000    62.15000000
   H     13.89000000     1.54000000    60.31000000
   H     11.87000000    -0.40000000    61.30000000
   H     12.68000000     0.81000000    62.21000000
   N     13.10000000    -2.24000000    62.42000000
   C     11.72000000    -2.64000000    62.32000000
   C     11.21000000    -2.92000000    60.91000000
   O     11.82000000    -3.64000000    60.12000000
   C     11.56000000    -3.84000000    63.25000000
   C     10.09000000    -3.99000000    63.60000000
   N      9.68000000    -3.72000000    64.84000000
   O      9.30000000    -4.53000000    62.83000000
   H     13.76000000    -2.97000000    62.66000000
   H     11.13000000    -1.82000000    62.74000000
   H     12.17000000    -3.70000000    64.14000000
   H     11.84000000    -4.78000000    62.78000000
   H     10.31000000    -3.09000000    65.33000000
   H      8.74000000    -4.01000000    65.06000000
   N     10.03000000    -2.37000000    60.62000000
   C      9.32000000    -2.64000000    59.39000000
   C      8.61000000    -1.36000000    58.97000000
   O      7.39000000    -1.38000000    58.82000000
   H      9.48000000    -1.82000000    61.27000000
   H      8.63000000    -3.45000000    59.63000000
   H     10.03000000    -3.03000000    58.66000000
   N      9.21000000    -0.18000000    59.14000000
   C      8.59000000     1.12000000    59.29000000
   C      8.81000000     1.95000000    58.03000000
   O      9.52000000     2.96000000    58.02000000
   C      9.06000000     1.81000000    60.57000000
   C      8.06000000     2.81000000    61.13000000
   O      9.28000000     0.84000000    61.57000000
   H     10.20000000    -0.22000000    59.33000000
   H      7.52000000     0.98000000    59.44000000
   H      9.94000000     2.40000000    60.32000000
   H      9.77000000     1.28000000    62.27000000
   H      7.15000000     2.25000000    61.40000000
   H      8.42000000     3.25000000    62.06000000
   H      7.93000000     3.63000000    60.43000000
   N      8.36000000     1.37000000    56.92000000
   C      8.69000000     1.87000000    55.60000000
   C      7.50000000     2.61000000    55.00000000
   O      6.39000000     2.10000000    55.08000000
   C      9.09000000     0.75000000    54.65000000
   C     10.43000000     0.18000000    55.11000000
   C      8.10000000    -0.41000000    54.62000000
   C     10.99000000    -0.88000000    54.18000000
   H      7.96000000     0.44000000    56.94000000
   H      9.58000000     2.50000000    55.64000000
   H      9.23000000     1.19000000    53.66000000
   H     10.46000000    -0.20000000    56.13000000
   H     11.16000000     0.99000000    55.13000000
   H      7.04000000    -0.18000000    54.52000000
   H      8.25000000    -1.15000000    53.84000000
   H      8.14000000    -0.99000000    55.55000000
   H     10.35000000    -1.76000000    54.08000000
   H     11.19000000    -0.36000000    53.24000000
   H     11.94000000    -1.23000000    54.59000000
   N      7.74000000     3.83000000    54.51000000
   C      6.79000000     4.79000000    53.99000000
   C      7.13000000     5.45000000    52.66000000
   O      8.27000000     5.82000000    52.38000000
   C      6.49000000     5.83000000    55.06000000
   C      6.36000000     5.38000000    56.51000000
   O      5.41000000     4.67000000    56.90000000
   O      7.32000000     5.67000000    57.25000000
   H      8.69000000     4.16000000    54.63000000
   H      5.88000000     4.22000000    53.81000000
   H      5.61000000     6.39000000    54.76000000
   H      7.31000000     6.56000000    55.01000000
   N      6.11000000     5.57000000    51.80000000
   C      6.26000000     6.09000000    50.45000000
   C      7.34000000     5.36000000    49.66000000
   O      7.12000000     4.22000000    49.28000000
   C      4.88000000     5.88000000    49.82000000
   C      4.66000000     6.33000000    48.40000000
   C      3.88000000     5.51000000    47.56000000
   C      5.28000000     7.49000000    47.92000000
   C      3.66000000     5.97000000    46.26000000
   C      5.19000000     7.83000000    46.56000000
   C      4.39000000     7.04000000    45.72000000
   H      5.18000000     5.45000000    52.17000000
   H      6.39000000     7.16000000    50.62000000
   H      4.02000000     6.20000000    50.41000000
   H      4.64000000     4.82000000    49.85000000
   H      3.50000000     4.57000000    47.93000000
   H      5.82000000     8.15000000    48.57000000
   H      3.03000000     5.34000000    45.65000000
   H      5.69000000     8.73000000    46.26000000
   H      4.16000000     7.35000000    44.72000000
   N      8.50000000     5.91000000    49.29000000
   C      9.43000000     5.30000000    48.36000000
   C     10.28000000     4.24000000    49.05000000
   O     10.80000000     3.37000000    48.36000000
   C     10.28000000     6.42000000    47.77000000
   C     10.27000000     7.45000000    48.90000000
   C      8.81000000     7.32000000    49.32000000
   H      8.96000000     4.84000000    47.49000000
   H     11.32000000     6.18000000    47.54000000
   H      9.80000000     6.82000000    46.88000000
   H     10.90000000     7.15000000    49.73000000
   H     10.54000000     8.46000000    48.59000000
   H      8.62000000     7.87000000    50.25000000
   H      8.20000000     7.71000000    48.50000000
   N     10.43000000     4.29000000    50.37000000
   C     11.13000000     3.41000000    51.30000000
   C     10.71000000     1.96000000    51.16000000
   O     11.59000000     1.13000000    51.39000000
   C     10.90000000     3.75000000    52.77000000
   C     11.46000000     5.12000000    53.12000000
   C     11.23000000     5.58000000    54.55000000
   O     11.84000000     6.59000000    54.95000000
   O     10.35000000     5.02000000    55.25000000
   H      9.87000000     4.97000000    50.87000000
   H     12.17000000     3.66000000    51.09000000
   H     11.42000000     2.95000000    53.30000000
   H      9.82000000     3.74000000    52.92000000
   H     10.89000000     5.82000000    52.51000000
   H     12.51000000     5.20000000    52.84000000
   N      9.55000000     1.56000000    50.63000000
   C      9.11000000     0.22000000    50.34000000
   H      8.16900000     0.25800000    49.79200000
   H      9.86200000    -0.28700000    49.73500000
   H      8.96500000    -0.32500000    51.27300000
   H      8.88000000     2.30000000    50.43000000
  Ca      9.88000000     5.69000000    57.69000000
   O     10.07000000     5.12000000    60.31000000
   H      9.56000000     5.38000000    61.07000000
   H     10.78000000     4.58000000    60.67000000
   O     11.74000000     7.40000000    58.41000000
   H     11.68000000     8.32000000    58.15000000
   H     12.66000000     7.26000000    58.61000000
   O      9.53000000     7.78000000    55.96000000
   H      9.82000000     7.58000000    55.07000000
   H      9.42000000     8.73000000    55.97000000

Ca 1.00



