%chk=loop1.apoCaM-CA-Ng.Init295.run36.water6.chk
%nprocshared=20
%mem=10GB
%nosave
#b3lyp/svp scf=(tight,noincore,xqc) Test 
#IOP(5/87=12) Density=Current Pop=(MK,readradii) iop(6/33=2) iop(6/42=6)

loop1.apoCaM-CA-Ng.Init295.run36.water6 

   0  1 
   C     91.65000000    71.74000000    48.47000000
   C     91.18000000    72.11000000    47.07000000
   O     89.98000000    72.31000000    46.87000000
   H     92.52000000    72.34300000    48.73200000
   H     90.84900000    71.92900000    49.18500000
   H     91.91900000    70.68400000    48.49600000
   N     92.18000000    72.22000000    46.20000000
   C     91.98000000    72.38000000    44.78000000
   C     91.20000000    73.61000000    44.35000000
   O     90.31000000    73.60000000    43.50000000
   C     91.43000000    71.09000000    44.19000000
   C     91.30000000    70.96000000    42.68000000
   O     90.56000000    70.11000000    42.14000000
   O     92.27000000    71.35000000    41.98000000
   H     93.12000000    71.97000000    46.50000000
   H     92.94000000    72.51000000    44.27000000
   H     90.44000000    71.03000000    44.64000000
   H     92.15000000    70.36000000    44.57000000
   N     91.40000000    74.79000000    44.94000000
   C     90.50000000    75.93000000    44.85000000
   C     90.37000000    76.45000000    43.43000000
   O     89.29000000    76.80000000    42.96000000
   C     90.98000000    76.92000000    45.91000000
   C     90.78000000    76.29000000    47.28000000
   C     89.35000000    75.95000000    47.70000000
   C     88.52000000    77.21000000    47.89000000
   N     87.13000000    76.90000000    48.27000000
   H     92.21000000    74.92000000    45.53000000
   H     89.50000000    75.53000000    45.01000000
   H     90.39000000    77.84000000    45.90000000
   H     91.98000000    77.30000000    45.73000000
   H     91.04000000    77.04000000    48.04000000
   H     91.38000000    75.40000000    47.45000000
   H     89.28000000    75.43000000    48.65000000
   H     88.93000000    75.33000000    46.90000000
   H     88.56000000    77.79000000    46.97000000
   H     88.83000000    77.96000000    48.62000000
   H     86.70000000    76.33000000    47.55000000
   H     87.10000000    76.36000000    49.12000000
   H     86.64000000    77.78000000    48.33000000
   N     91.50000000    76.55000000    42.72000000
   C     91.69000000    77.11000000    41.39000000
   C     90.97000000    76.31000000    40.31000000
   O     90.53000000    76.86000000    39.30000000
   C     93.17000000    77.39000000    41.17000000
   C     93.50000000    78.15000000    39.89000000
   O     94.64000000    78.06000000    39.39000000
   O     92.63000000    78.89000000    39.38000000
   H     92.35000000    76.07000000    43.00000000
   H     91.21000000    78.09000000    41.42000000
   H     93.73000000    76.46000000    41.10000000
   H     93.50000000    78.06000000    41.96000000
   N     90.97000000    74.98000000    40.44000000
   C     90.17000000    74.00000000    39.73000000
   C     90.82000000    73.56000000    38.43000000
   O     90.23000000    72.80000000    37.66000000
   H     91.43000000    74.66000000    41.27000000
   H     89.17000000    74.37000000    39.48000000
   H     90.18000000    73.21000000    40.48000000
   N     92.05000000    73.93000000    38.08000000
   C     92.68000000    73.52000000    36.84000000
   C     94.11000000    73.04000000    37.02000000
   O     94.81000000    73.42000000    37.95000000
   C     92.56000000    74.62000000    35.79000000
   C     93.28000000    75.91000000    36.19000000
   O     94.52000000    76.00000000    36.02000000
   O     92.64000000    76.77000000    36.83000000
   H     92.56000000    74.49000000    38.75000000
   H     92.15000000    72.63000000    36.48000000
   H     91.51000000    74.80000000    35.55000000
   H     93.04000000    74.22000000    34.90000000
   N     94.49000000    72.09000000    36.16000000
   C     95.85000000    71.59000000    36.02000000
   C     96.47000000    70.81000000    37.17000000
   O     97.62000000    70.42000000    37.00000000
   H     93.86000000    71.87000000    35.41000000
   H     96.44000000    72.48000000    35.81000000
   H     95.81000000    70.93000000    35.15000000
   N     95.71000000    70.67000000    38.27000000
   C     96.23000000    70.23000000    39.54000000
   C     97.28000000    71.17000000    40.13000000
   O     97.18000000    72.39000000    40.04000000
   C     95.13000000    69.96000000    40.56000000
   C     95.60000000    69.22000000    41.81000000
   O     94.54000000    71.20000000    40.89000000
   H     94.92000000    71.30000000    38.35000000
   H     96.63000000    69.23000000    39.35000000
   H     94.42000000    69.27000000    40.12000000
   H     93.66000000    71.06000000    41.26000000
   H     96.41000000    69.78000000    42.28000000
   H     94.76000000    69.14000000    42.51000000
   H     95.92000000    68.21000000    41.56000000
   N     98.32000000    70.60000000    40.74000000
   C     99.42000000    71.30000000    41.37000000
   C    100.84000000    70.79000000    41.15000000
   O    101.74000000    71.60000000    40.95000000
   C     99.14000000    71.59000000    42.84000000
   C    100.21000000    72.50000000    43.44000000
   C     99.10000000    70.26000000    43.60000000
   C     99.88000000    73.23000000    44.73000000
   H     98.18000000    69.62000000    40.97000000
   H     99.38000000    72.23000000    40.79000000
   H     98.18000000    72.08000000    42.94000000
   H    100.47000000    73.23000000    42.67000000
   H    101.14000000    71.96000000    43.64000000
   H    100.07000000    69.75000000    43.62000000
   H     98.62000000    70.38000000    44.57000000
   H     98.48000000    69.57000000    43.04000000
   H    100.75000000    73.83000000    45.00000000
   H     99.20000000    74.05000000    44.50000000
   H     99.62000000    72.57000000    45.56000000
   N    101.18000000    69.50000000    41.15000000
   C    102.50000000    69.04000000    40.80000000
   C    103.03000000    67.97000000    41.75000000
   O    102.42000000    67.73000000    42.79000000
   C    102.54000000    68.47000000    39.38000000
   C    101.56000000    69.01000000    38.35000000
   O    103.84000000    68.63000000    38.85000000
   H    100.50000000    68.84000000    41.49000000
   H    103.30000000    69.78000000    40.77000000
   H    102.26000000    67.42000000    39.38000000
   H    104.05000000    67.92000000    38.24000000
   H    100.55000000    68.69000000    38.61000000
   H    101.57000000    70.10000000    38.42000000
   H    101.72000000    68.56000000    37.37000000
   N    104.18000000    67.33000000    41.52000000
   C    104.75000000    66.19000000    42.20000000
   C    105.40000000    66.55000000    43.53000000
   O    105.38000000    65.73000000    44.45000000
   C    105.76000000    65.44000000    41.33000000
   C    106.20000000    64.09000000    41.87000000
   O    106.87000000    66.28000000    41.08000000
   H    104.60000000    67.67000000    40.66000000
   H    103.99000000    65.47000000    42.48000000
   H    105.29000000    65.31000000    40.35000000
   H    107.41000000    65.96000000    40.35000000
   H    105.34000000    63.49000000    42.15000000
   H    106.72000000    63.52000000    41.09000000
   H    106.87000000    64.25000000    42.71000000
   N    105.93000000    67.76000000    43.74000000
   C    106.46000000    68.25000000    44.99000000
   C    105.48000000    68.20000000    46.16000000
   O    104.34000000    68.65000000    46.07000000
   C    106.99000000    69.67000000    44.82000000
   C    107.76000000    70.16000000    46.04000000
   C    108.12000000    71.61000000    45.76000000
   C    109.16000000    72.05000000    46.78000000
   N    109.44000000    73.49000000    46.69000000
   H    105.85000000    68.40000000    42.96000000
   H    107.37000000    67.68000000    45.19000000
   H    106.22000000    70.41000000    44.61000000
   H    107.71000000    69.63000000    44.00000000
   H    108.71000000    69.63000000    46.14000000
   H    107.14000000    70.11000000    46.93000000
   H    107.19000000    72.17000000    45.75000000
   H    108.59000000    71.71000000    44.78000000
   H    110.06000000    71.43000000    46.75000000
   H    108.76000000    71.73000000    47.75000000
   H    108.64000000    74.10000000    46.78000000
   H    110.22000000    73.73000000    47.28000000
   H    109.87000000    73.57000000    45.78000000
   N    105.89000000    67.70000000    47.33000000
   C    105.04000000    67.33000000    48.45000000
   C    104.57000000    65.88000000    48.46000000
   O    105.18000000    65.01000000    47.86000000
   C    105.74000000    67.64000000    49.77000000
   C    105.73000000    69.16000000    49.82000000
   C    106.29000000    69.55000000    51.18000000
   O    105.80000000    70.55000000    51.76000000
   O    107.19000000    68.93000000    51.78000000
   H    106.86000000    67.44000000    47.40000000
   H    104.12000000    67.89000000    48.31000000
   H    106.74000000    67.22000000    49.77000000
   H    105.11000000    67.26000000    50.58000000
   H    104.80000000    69.68000000    49.59000000
   H    106.48000000    69.51000000    49.10000000
   N    103.51000000    65.49000000    49.18000000
   C    102.50000000    66.27000000    49.86000000
   H    101.58500000    65.68300000    49.94600000
   H    102.85500000    66.53600000    50.85600000
   H    102.29700000    67.17700000    49.29100000
   H    103.22000000    64.53000000    49.03000000
  Ca     91.07000000    78.75000000    37.44000000
   O     88.71000000    80.18000000    36.58000000
   H     88.73000000    80.53000000    35.69000000
   H     87.79000000    80.22000000    36.83000000
   O     89.27000000    77.02000000    36.60000000
   H     89.42000000    76.48000000    35.82000000
   H     88.32000000    77.04000000    36.70000000
   O     91.35000000    78.94000000    34.79000000
   H     90.65000000    79.20000000    34.20000000
   H     92.09000000    78.74000000    34.21000000
   O     89.72000000    79.86000000    39.48000000
   H     89.65000000    79.56000000    40.39000000
   H     89.26000000    80.70000000    39.47000000
   O     91.81000000    81.31000000    36.86000000
   H     91.23000000    82.07000000    36.90000000
   H     92.54000000    81.59000000    36.31000000
   O     93.99000000    79.09000000    36.97000000
   H     94.23000000    78.92000000    37.88000000
   H     94.05000000    78.24000000    36.54000000

Ca 1.00



