%chk=loop4.holoCaM-CaMKII.run9.water1.chk
%nprocshared=20
%mem=10GB
%nosave
#b3lyp/svp scf=(tight,noincore,xqc) Test 
#IOP(5/87=12) Density=Current Pop=(MK,readradii) iop(6/33=2) iop(6/42=6)

loop4.holoCaM-CaMKII.run9.water1 

   -3  1 
   C     73.17000000    54.51000000    41.17000000
   C     72.20000000    53.35000000    41.06000000
   O     71.02000000    53.59000000    40.81000000
   H     74.08200000    54.27300000    40.62300000
   H     72.71500000    55.40600000    40.74700000
   H     73.41100000    54.68500000    42.21900000
   N     72.65000000    52.11000000    41.30000000
   C     71.84000000    50.94000000    41.03000000
   C     70.98000000    50.63000000    42.25000000
   O     71.53000000    50.66000000    43.36000000
   C     72.79000000    49.79000000    40.73000000
   C     72.25000000    48.39000000    40.52000000
   O     71.02000000    48.23000000    40.38000000
   O     72.98000000    47.37000000    40.54000000
   H     73.63000000    51.94000000    41.47000000
   H     71.15000000    51.11000000    40.20000000
   H     73.64000000    49.81000000    41.42000000
   H     73.29000000    50.08000000    39.80000000
   N     69.66000000    50.52000000    42.11000000
   C     68.61000000    50.38000000    43.10000000
   C     68.43000000    48.97000000    43.63000000
   O     68.12000000    48.79000000    44.81000000
   C     67.35000000    50.97000000    42.48000000
   C     67.44000000    52.46000000    42.17000000
   C     66.15000000    50.68000000    43.37000000
   C     67.62000000    53.48000000    43.29000000
   H     69.28000000    50.64000000    41.18000000
   H     68.91000000    51.04000000    43.92000000
   H     67.24000000    50.43000000    41.54000000
   H     66.48000000    52.71000000    41.73000000
   H     68.12000000    52.63000000    41.33000000
   H     65.30000000    50.90000000    42.72000000
   H     66.15000000    49.61000000    43.57000000
   H     66.19000000    51.20000000    44.33000000
   H     67.62000000    54.50000000    42.91000000
   H     66.85000000    53.38000000    44.06000000
   H     68.58000000    53.45000000    43.79000000
   N     68.76000000    47.99000000    42.78000000
   C     68.31000000    46.62000000    42.85000000
   C     69.44000000    45.61000000    42.74000000
   O     69.17000000    44.45000000    43.04000000
   C     67.25000000    46.26000000    41.82000000
   C     67.74000000    46.74000000    40.46000000
   O     68.65000000    46.04000000    39.96000000
   O     67.33000000    47.75000000    39.84000000
   H     69.10000000    48.21000000    41.85000000
   H     67.91000000    46.55000000    43.87000000
   H     66.41000000    46.88000000    42.12000000
   H     66.91000000    45.22000000    41.75000000
   N     70.67000000    46.08000000    42.53000000
   C     71.90000000    45.36000000    42.79000000
   C     72.23000000    44.29000000    41.75000000
   O     72.63000000    43.19000000    42.11000000
   H     70.94000000    46.93000000    42.05000000
   H     71.94000000    45.01000000    43.82000000
   H     72.75000000    46.04000000    42.71000000
   N     72.22000000    44.67000000    40.47000000
   C     72.61000000    43.87000000    39.32000000
   C     73.78000000    44.37000000    38.49000000
   O     74.28000000    43.65000000    37.63000000
   C     71.37000000    43.74000000    38.44000000
   C     70.86000000    44.99000000    37.75000000
   O     71.38000000    46.11000000    37.97000000
   O     69.94000000    44.97000000    36.91000000
   H     71.80000000    45.56000000    40.24000000
   H     72.97000000    42.89000000    39.63000000
   H     70.59000000    43.35000000    39.10000000
   H     71.58000000    42.97000000    37.70000000
   N     74.29000000    45.56000000    38.80000000
   C     75.34000000    46.36000000    38.22000000
   C     74.96000000    46.98000000    36.88000000
   O     75.79000000    47.10000000    35.98000000
   H     73.76000000    46.01000000    39.54000000
   H     76.19000000    45.69000000    38.10000000
   H     75.63000000    47.13000000    38.94000000
   N     73.67000000    47.27000000    36.66000000
   C     73.14000000    47.94000000    35.49000000
   C     72.12000000    48.97000000    35.94000000
   O     71.27000000    48.71000000    36.79000000
   C     72.43000000    46.90000000    34.62000000
   C     73.33000000    45.93000000    33.86000000
   C     74.04000000    46.40000000    32.60000000
   N     74.46000000    45.53000000    31.68000000
   O     74.09000000    47.60000000    32.35000000
   H     73.00000000    46.93000000    37.33000000
   H     74.00000000    48.46000000    35.06000000
   H     71.78000000    47.34000000    33.86000000
   H     71.74000000    46.36000000    35.26000000
   H     72.73000000    45.07000000    33.55000000
   H     74.07000000    45.59000000    34.59000000
   H     74.37000000    44.52000000    31.76000000
   H     74.95000000    45.82000000    30.85000000
   N     72.07000000    50.13000000    35.28000000
   C     71.27000000    51.25000000    35.71000000
   C     70.22000000    51.58000000    34.65000000
   O     70.63000000    52.04000000    33.59000000
   C     72.25000000    52.40000000    35.92000000
   C     71.50000000    53.60000000    36.50000000
   C     73.35000000    52.00000000    36.89000000
   H     72.83000000    50.44000000    34.69000000
   H     70.78000000    51.03000000    36.66000000
   H     72.77000000    52.75000000    35.03000000
   H     72.28000000    54.32000000    36.74000000
   H     70.89000000    53.99000000    35.69000000
   H     70.81000000    53.42000000    37.32000000
   H     74.08000000    52.75000000    37.19000000
   H     72.97000000    51.72000000    37.88000000
   H     74.01000000    51.21000000    36.55000000
   N     68.93000000    51.37000000    34.90000000
   C     67.85000000    51.91000000    34.09000000
   C     67.53000000    53.40000000    34.15000000
   O     67.92000000    54.03000000    35.12000000
   C     66.64000000    51.04000000    34.40000000
   C     65.75000000    50.71000000    33.21000000
   N     66.05000000    49.76000000    32.32000000
   O     64.74000000    51.38000000    33.01000000
   H     68.67000000    50.87000000    35.74000000
   H     68.14000000    51.70000000    33.05000000
   H     66.05000000    51.55000000    35.16000000
   H     67.00000000    50.13000000    34.88000000
   H     66.86000000    49.19000000    32.51000000
   H     65.50000000    49.54000000    31.50000000
   N     66.75000000    53.88000000    33.18000000
   C     66.38000000    55.28000000    33.26000000
   C     65.71000000    55.59000000    34.59000000
   O     66.08000000    56.60000000    35.19000000
   C     65.56000000    55.72000000    32.06000000
   C     65.12000000    57.16000000    31.91000000
   C     66.06000000    58.18000000    32.11000000
   C     63.80000000    57.43000000    31.51000000
   C     65.64000000    59.51000000    32.12000000
   C     63.38000000    58.76000000    31.53000000
   C     64.29000000    59.79000000    31.84000000
   O     63.82000000    61.07000000    31.89000000
   H     66.30000000    53.33000000    32.45000000
   H     67.33000000    55.81000000    33.20000000
   H     64.62000000    55.16000000    32.00000000
   H     66.05000000    55.35000000    31.16000000
   H     67.04000000    57.98000000    32.50000000
   H     63.14000000    56.58000000    31.40000000
   H     66.28000000    60.37000000    32.32000000
   H     62.36000000    58.99000000    31.27000000
   H     62.88000000    61.01000000    32.06000000
   N     64.79000000    54.81000000    35.16000000
   C     64.17000000    54.96000000    36.46000000
   C     65.15000000    54.91000000    37.61000000
   O     64.72000000    55.29000000    38.70000000
   C     63.03000000    53.97000000    36.71000000
   C     63.40000000    52.50000000    36.51000000
   C     62.19000000    51.61000000    36.77000000
   O     61.54000000    51.24000000    35.77000000
   O     61.98000000    51.35000000    37.97000000
   H     64.51000000    54.02000000    34.58000000
   H     63.71000000    55.95000000    36.47000000
   H     62.26000000    54.34000000    36.02000000
   H     62.70000000    54.21000000    37.72000000
   H     64.22000000    52.23000000    37.17000000
   H     63.77000000    52.37000000    35.49000000
   N     66.35000000    54.32000000    37.52000000
   C     67.32000000    54.42000000    38.58000000
   C     68.22000000    55.64000000    38.42000000
   O     68.63000000    56.32000000    39.36000000
   C     68.17000000    53.16000000    38.50000000
   C     67.38000000    51.87000000    38.69000000
   C     68.20000000    50.62000000    38.42000000
   O     69.06000000    50.29000000    39.27000000
   O     67.98000000    49.99000000    37.37000000
   H     66.62000000    53.83000000    36.68000000
   H     66.88000000    54.47000000    39.58000000
   H     69.07000000    53.24000000    39.12000000
   H     68.41000000    53.10000000    37.44000000
   H     66.49000000    51.80000000    38.05000000
   H     67.03000000    51.87000000    39.72000000
   N     68.49000000    56.03000000    37.16000000
   C     69.34000000    57.14000000    36.79000000
   H     70.28800000    56.76000000    36.40900000
   H     68.85000000    57.73200000    36.01700000
   H     69.52500000    57.76400000    37.66400000
   H     68.31000000    55.36000000    36.43000000
  Ca     69.49000000    47.83000000    38.42000000
   O     68.03000000    46.77000000    36.49000000
   H     68.64000000    46.04000000    36.40000000
   H     67.25000000    46.51000000    35.99000000

Ca 1.00



