%chk=loop2.apoCaM-CA-Ng.Init295.run18.water2.chk
%nprocshared=20
%mem=10GB
%nosave
#b3lyp/svp scf=(tight,noincore,xqc) Test 
#IOP(5/87=12) Density=Current Pop=(MK,readradii) iop(6/33=2) iop(6/42=6)

loop2.apoCaM-CA-Ng.Init295.run18.water2 

   -2  1 
   C     69.71000000    40.22000000    36.49000000
   C     68.65000000    39.88000000    35.44000000
   O     67.49000000    39.64000000    35.75000000
   H     70.56500000    40.69000000    36.00400000
   H     69.28800000    40.90600000    37.22400000
   H     70.03400000    39.30700000    36.98900000
   N     69.13000000    39.85000000    34.20000000
   C     68.26000000    39.56000000    33.08000000
   C     67.49000000    40.76000000    32.55000000
   O     67.84000000    41.39000000    31.55000000
   C     68.97000000    38.86000000    31.92000000
   C     70.18000000    39.60000000    31.38000000
   O     70.95000000    40.22000000    32.15000000
   O     70.39000000    39.63000000    30.14000000
   H     70.13000000    39.89000000    34.06000000
   H     67.56000000    38.83000000    33.47000000
   H     68.25000000    38.75000000    31.12000000
   H     69.30000000    37.88000000    32.27000000
   N     66.52000000    41.17000000    33.37000000
   C     65.63000000    42.31000000    33.20000000
   C     65.31000000    42.77000000    34.61000000
   O     65.20000000    41.94000000    35.51000000
   C     64.42000000    41.90000000    32.36000000
   H     66.37000000    40.60000000    34.19000000
   H     66.15000000    43.08000000    32.64000000
   H     63.76000000    41.28000000    32.97000000
   H     63.81000000    42.80000000    32.27000000
   H     64.62000000    41.57000000    31.35000000
   N     65.30000000    44.08000000    34.85000000
   C     65.35000000    45.20000000    33.94000000
   C     66.78000000    45.62000000    33.63000000
   O     67.75000000    45.22000000    34.27000000
   C     64.54000000    46.36000000    34.52000000
   C     63.06000000    46.08000000    34.76000000
   O     62.55000000    46.71000000    35.72000000
   O     62.46000000    45.20000000    34.11000000
   H     65.10000000    44.25000000    35.83000000
   H     64.80000000    45.02000000    33.01000000
   H     64.66000000    47.20000000    33.84000000
   H     64.96000000    46.71000000    35.46000000
   N     66.98000000    46.41000000    32.57000000
   C     68.27000000    46.70000000    31.97000000
   C     68.89000000    45.46000000    31.35000000
   O     68.20000000    44.52000000    30.95000000
   H     66.15000000    46.57000000    32.02000000
   H     68.87000000    47.10000000    32.79000000
   H     68.05000000    47.44000000    31.20000000
   N     70.19000000    45.19000000    31.44000000
   C     71.26000000    46.13000000    31.72000000
   C     71.62000000    46.23000000    33.19000000
   O     72.32000000    47.16000000    33.59000000
   C     72.41000000    45.63000000    30.85000000
   C     71.91000000    45.44000000    29.43000000
   N     71.80000000    44.24000000    28.85000000
   O     71.56000000    46.43000000    28.78000000
   H     70.46000000    44.24000000    31.23000000
   H     70.90000000    47.09000000    31.37000000
   H     72.72000000    44.64000000    31.21000000
   H     73.25000000    46.33000000    30.82000000
   H     71.78000000    43.36000000    29.34000000
   H     71.49000000    44.23000000    27.89000000
   N     70.99000000    45.43000000    34.05000000
   C     71.34000000    45.53000000    35.46000000
   C     70.73000000    46.60000000    36.36000000
   O     71.38000000    47.03000000    37.31000000
   H     70.38000000    44.67000000    33.80000000
   H     72.42000000    45.40000000    35.46000000
   H     70.96000000    44.59000000    35.86000000
   N     69.54000000    47.01000000    35.94000000
   C     68.80000000    48.17000000    36.41000000
   C     67.83000000    47.74000000    37.50000000
   O     66.75000000    47.33000000    37.07000000
   C     68.14000000    48.99000000    35.31000000
   C     67.78000000    50.39000000    35.80000000
   O     69.10000000    49.24000000    34.30000000
   H     69.06000000    46.49000000    35.22000000
   H     69.55000000    48.86000000    36.79000000
   H     67.24000000    48.50000000    34.93000000
   H     68.68000000    49.70000000    33.58000000
   H     67.27000000    50.23000000    36.75000000
   H     68.69000000    50.99000000    35.93000000
   H     67.09000000    50.87000000    35.10000000
   N     68.15000000    47.74000000    38.80000000
   C     67.28000000    47.30000000    39.86000000
   C     66.45000000    48.46000000    40.39000000
   O     66.51000000    49.61000000    39.98000000
   C     67.98000000    46.59000000    41.01000000
   C     68.85000000    45.48000000    40.43000000
   C     68.86000000    47.62000000    41.73000000
   C     68.05000000    44.45000000    39.65000000
   H     69.02000000    48.14000000    39.13000000
   H     66.56000000    46.58000000    39.46000000
   H     67.24000000    46.13000000    41.67000000
   H     69.30000000    44.97000000    41.28000000
   H     69.66000000    45.89000000    39.83000000
   H     68.34000000    48.49000000    42.13000000
   H     69.33000000    47.18000000    42.61000000
   H     69.70000000    47.90000000    41.09000000
   H     67.14000000    44.15000000    40.17000000
   H     67.87000000    44.92000000    38.68000000
   H     68.68000000    43.57000000    39.51000000
   N     65.55000000    48.13000000    41.33000000
   C     64.61000000    49.01000000    42.00000000
   C     64.02000000    48.22000000    43.15000000
   O     63.53000000    47.11000000    42.94000000
   C     63.52000000    49.62000000    41.11000000
   C     62.89000000    48.71000000    40.06000000
   O     63.39000000    48.63000000    38.92000000
   O     61.91000000    48.01000000    40.38000000
   H     65.54000000    47.19000000    41.69000000
   H     65.13000000    49.83000000    42.49000000
   H     63.86000000    50.56000000    40.68000000
   H     62.72000000    49.89000000    41.80000000
   N     64.06000000    48.72000000    44.39000000
   C     63.64000000    48.01000000    45.59000000
   C     64.33000000    46.67000000    45.81000000
   O     65.54000000    46.60000000    45.62000000
   C     63.89000000    48.94000000    46.77000000
   C     63.54000000    48.31000000    48.10000000
   C     64.62000000    47.78000000    48.81000000
   C     62.27000000    48.42000000    48.69000000
   C     64.36000000    47.22000000    50.06000000
   C     62.03000000    47.96000000    49.99000000
   C     63.11000000    47.40000000    50.67000000
   H     64.52000000    49.61000000    44.50000000
   H     62.56000000    47.87000000    45.53000000
   H     63.36000000    49.89000000    46.77000000
   H     64.91000000    49.29000000    46.90000000
   H     65.63000000    47.80000000    48.41000000
   H     61.42000000    48.68000000    48.08000000
   H     65.13000000    46.83000000    50.71000000
   H     61.05000000    47.90000000    50.44000000
   H     62.96000000    47.03000000    51.68000000
   N     63.65000000    45.64000000    46.31000000
   C     64.22000000    44.35000000    46.68000000
   C     64.70000000    43.45000000    45.56000000
   O     64.76000000    42.24000000    45.77000000
   C     63.08000000    43.71000000    47.48000000
   C     62.01000000    44.77000000    47.74000000
   C     62.22000000    45.62000000    46.49000000
   H     65.07000000    44.53000000    47.34000000
   H     62.55000000    42.99000000    46.86000000
   H     63.45000000    43.39000000    48.45000000
   H     60.99000000    44.40000000    47.87000000
   H     62.36000000    45.33000000    48.60000000
   H     61.88000000    45.30000000    45.51000000
   H     61.68000000    46.55000000    46.68000000
   N     64.99000000    44.07000000    44.41000000
   C     65.38000000    43.30000000    43.24000000
   C     66.89000000    43.13000000    43.23000000
   O     67.37000000    42.35000000    42.42000000
   C     64.79000000    43.95000000    41.99000000
   C     63.27000000    43.96000000    41.83000000
   C     62.84000000    44.77000000    40.61000000
   O     61.63000000    45.01000000    40.38000000
   O     63.73000000    45.24000000    39.87000000
   H     65.10000000    45.07000000    44.38000000
   H     65.00000000    42.28000000    43.25000000
   H     65.26000000    43.54000000    41.10000000
   H     65.07000000    45.00000000    42.01000000
   H     62.83000000    44.38000000    42.73000000
   H     63.02000000    42.90000000    41.77000000
   N     67.68000000    43.76000000    44.10000000
   C     69.12000000    43.70000000    44.18000000
   H     69.52600000    44.71200000    44.18000000
   H     69.41300000    43.19200000    45.09900000
   H     69.51000000    43.15300000    43.32100000
   H     67.22000000    44.29000000    44.83000000
  Ca     61.95000000    46.49000000    38.27000000
   O     62.60000000    43.93000000    37.08000000
   H     62.21000000    43.89000000    36.21000000
   H     62.84000000    43.03000000    37.28000000
   O     59.67000000    45.58000000    37.33000000
   H     58.88000000    46.08000000    37.53000000
   H     59.37000000    44.85000000    36.79000000

Ca 1.00



