%chk=loop4.apoCaM-CA-Ng.Init293.run84.water3.chk
%nprocshared=20
%mem=10GB
%nosave
#b3lyp/svp scf=(tight,noincore,xqc) Test 
#IOP(5/87=12) Density=Current Pop=(MK,readradii) iop(6/33=2) iop(6/42=6)

loop4.apoCaM-CA-Ng.Init293.run84.water3 

   -3  1 
   C     54.74000000    81.39000000    43.89000000
   C     53.70000000    80.88000000    44.87000000
   O     52.52000000    80.89000000    44.52000000
   H     55.66800000    80.83500000    44.02500000
   H     54.37900000    81.25100000    42.87100000
   H     54.92100000    82.45000000    44.07000000
   N     54.06000000    80.61000000    46.13000000
   C     53.32000000    80.07000000    47.25000000
   C     52.40000000    78.88000000    47.01000000
   O     51.63000000    78.52000000    47.89000000
   C     52.76000000    81.26000000    48.02000000
   C     51.83000000    82.12000000    47.17000000
   O     50.78000000    81.63000000    46.69000000
   O     51.87000000    83.37000000    47.17000000
   H     55.06000000    80.61000000    46.29000000
   H     54.16000000    79.77000000    47.89000000
   H     53.69000000    81.72000000    48.36000000
   H     52.30000000    80.96000000    48.95000000
   N     52.47000000    78.24000000    45.84000000
   C     51.55000000    77.26000000    45.28000000
   C     50.13000000    77.79000000    45.19000000
   O     49.96000000    78.97000000    44.89000000
   C     52.07000000    76.70000000    43.96000000
   C     53.18000000    75.72000000    44.31000000
   C     52.39000000    77.82000000    42.97000000
   C     53.70000000    75.15000000    42.99000000
   H     53.24000000    78.60000000    45.30000000
   H     51.45000000    76.39000000    45.92000000
   H     51.32000000    76.10000000    43.44000000
   H     52.74000000    74.95000000    44.94000000
   H     53.92000000    76.31000000    44.85000000
   H     53.07000000    78.61000000    43.29000000
   H     52.67000000    77.43000000    41.99000000
   H     51.40000000    78.20000000    42.74000000
   H     52.86000000    74.99000000    42.32000000
   H     54.34000000    75.92000000    42.56000000
   H     54.24000000    74.23000000    43.23000000
   N     49.08000000    76.98000000    45.37000000
   C     47.70000000    77.43000000    45.40000000
   C     47.47000000    78.39000000    46.56000000
   O     48.08000000    78.31000000    47.62000000
   C     46.69000000    76.29000000    45.41000000
   C     47.04000000    75.22000000    46.44000000
   O     48.16000000    74.68000000    46.48000000
   O     46.12000000    74.88000000    47.22000000
   H     49.27000000    76.00000000    45.46000000
   H     47.54000000    77.99000000    44.47000000
   H     46.67000000    75.76000000    44.46000000
   H     45.72000000    76.79000000    45.47000000
   N     46.42000000    79.22000000    46.46000000
   C     45.57000000    79.54000000    45.34000000
   C     46.24000000    80.23000000    44.17000000
   O     47.39000000    80.66000000    44.24000000
   H     46.27000000    79.75000000    47.31000000
   H     44.75000000    80.15000000    45.73000000
   H     45.23000000    78.56000000    44.97000000
   N     45.51000000    80.45000000    43.07000000
   C     44.10000000    80.14000000    42.92000000
   C     43.67000000    79.60000000    41.57000000
   O     42.75000000    80.11000000    40.94000000
   C     43.36000000    81.38000000    43.43000000
   C     41.87000000    81.14000000    43.57000000
   O     41.14000000    82.13000000    43.32000000
   O     41.39000000    80.04000000    43.93000000
   H     45.91000000    80.94000000    42.29000000
   H     43.74000000    79.31000000    43.53000000
   H     43.54000000    82.10000000    42.63000000
   H     43.77000000    81.76000000    44.36000000
   N     44.29000000    78.51000000    41.10000000
   C     45.50000000    77.92000000    41.65000000
   C     45.90000000    76.62000000    40.97000000
   O     45.97000000    75.59000000    41.64000000
   H     43.91000000    78.09000000    40.26000000
   H     45.33000000    77.72000000    42.71000000
   H     46.41000000    78.52000000    41.63000000
   N     46.03000000    76.59000000    39.64000000
   C     46.06000000    75.44000000    38.77000000
   C     47.44000000    75.23000000    38.16000000
   O     47.58000000    74.88000000    36.99000000
   C     44.90000000    75.66000000    37.80000000
   C     43.54000000    75.31000000    38.39000000
   C     43.41000000    73.83000000    38.72000000
   N     43.44000000    72.87000000    37.79000000
   O     43.36000000    73.45000000    39.89000000
   H     46.07000000    77.47000000    39.14000000
   H     45.79000000    74.56000000    39.35000000
   H     45.14000000    75.11000000    36.89000000
   H     44.82000000    76.68000000    37.43000000
   H     42.75000000    75.61000000    37.71000000
   H     43.38000000    75.88000000    39.31000000
   H     43.57000000    73.24000000    36.85000000
   H     43.32000000    71.92000000    38.11000000
   N     48.49000000    75.38000000    38.97000000
   C     49.86000000    74.95000000    38.81000000
   C     50.66000000    76.20000000    38.48000000
   O     51.11000000    76.88000000    39.40000000
   C     50.38000000    74.14000000    39.99000000
   C     51.84000000    73.76000000    39.74000000
   C     49.56000000    72.88000000    40.24000000
   H     48.24000000    75.79000000    39.86000000
   H     49.88000000    74.24000000    37.98000000
   H     50.53000000    74.74000000    40.90000000
   H     51.84000000    72.87000000    39.10000000
   H     52.44000000    74.59000000    39.38000000
   H     52.24000000    73.45000000    40.70000000
   H     48.49000000    73.09000000    40.22000000
   H     49.80000000    72.07000000    39.54000000
   H     49.70000000    72.50000000    41.25000000
   N     50.88000000    76.42000000    37.18000000
   C     51.31000000    77.70000000    36.65000000
   C     50.19000000    78.63000000    36.21000000
   O     50.34000000    79.84000000    36.10000000
   C     52.26000000    77.43000000    35.48000000
   C     53.08000000    78.65000000    35.09000000
   N     53.15000000    79.10000000    33.83000000
   O     53.80000000    79.28000000    35.86000000
   H     50.53000000    75.71000000    36.55000000
   H     51.92000000    78.19000000    37.41000000
   H     51.71000000    77.08000000    34.61000000
   H     52.96000000    76.62000000    35.70000000
   H     52.51000000    78.67000000    33.18000000
   H     53.68000000    79.96000000    33.74000000
   N     49.01000000    78.06000000    35.94000000
   C     47.82000000    78.79000000    35.55000000
   C     47.39000000    79.81000000    36.60000000
   O     47.24000000    79.45000000    37.76000000
   C     46.73000000    77.77000000    35.24000000
   C     46.80000000    77.19000000    33.84000000
   C     47.60000000    76.05000000    33.70000000
   C     45.98000000    77.58000000    32.78000000
   C     47.61000000    75.30000000    32.52000000
   C     46.04000000    76.83000000    31.60000000
   C     46.93000000    75.77000000    31.37000000
   O     47.02000000    75.09000000    30.19000000
   H     48.99000000    77.06000000    36.05000000
   H     48.19000000    79.33000000    34.67000000
   H     45.72000000    78.18000000    35.29000000
   H     46.72000000    77.00000000    36.01000000
   H     48.26000000    75.75000000    34.50000000
   H     45.41000000    78.48000000    32.97000000
   H     48.19000000    74.40000000    32.47000000
   H     45.40000000    77.11000000    30.77000000
   H     47.36000000    74.20000000    30.34000000
   N     47.30000000    81.08000000    36.22000000
   C     47.00000000    82.26000000    37.01000000
   C     48.11000000    82.67000000    37.97000000
   O     47.95000000    83.61000000    38.74000000
   C     45.64000000    82.16000000    37.70000000
   C     44.49000000    81.77000000    36.77000000
   C     44.15000000    82.86000000    35.76000000
   O     43.22000000    83.66000000    35.98000000
   O     44.81000000    83.00000000    34.71000000
   H     47.46000000    81.36000000    35.26000000
   H     46.80000000    83.11000000    36.37000000
   H     45.48000000    83.12000000    38.17000000
   H     45.75000000    81.42000000    38.50000000
   H     43.58000000    81.67000000    37.37000000
   H     44.47000000    80.82000000    36.24000000
   N     49.26000000    82.00000000    37.98000000
   C     50.43000000    82.48000000    38.68000000
   C     51.25000000    83.54000000    37.96000000
   O     52.10000000    84.17000000    38.60000000
   C     51.31000000    81.29000000    39.04000000
   C     50.70000000    80.30000000    40.03000000
   C     50.26000000    80.81000000    41.40000000
   O     49.40000000    80.14000000    42.02000000
   O     50.63000000    81.91000000    41.87000000
   H     49.25000000    81.08000000    37.55000000
   H     50.09000000    82.91000000    39.62000000
   H     52.22000000    81.70000000    39.48000000
   H     51.65000000    80.78000000    38.14000000
   H     51.35000000    79.43000000    40.15000000
   H     49.85000000    79.83000000    39.53000000
   N     51.09000000    83.74000000    36.65000000
   C     51.61000000    84.83000000    35.85000000
   H     52.61200000    84.57900000    35.50200000
   H     50.95800000    84.99500000    34.99200000
   H     51.65300000    85.73700000    36.45400000
   H     50.48000000    83.09000000    36.18000000
  Ca     49.99000000    81.57000000    44.29000000
   O     51.25000000    84.00000000    44.19000000
   H     51.18000000    84.27000000    43.28000000
   H     51.64000000    84.75000000    44.64000000
   O     48.67000000    83.67000000    43.20000000
   H     47.72000000    83.75000000    43.13000000
   H     48.95000000    84.49000000    43.62000000
   O     48.31000000    82.82000000    46.16000000
   H     47.41000000    83.13000000    46.11000000
   H     48.65000000    83.20000000    46.97000000

Ca 1.00



