%chk=loop4.holoCaM-CaMKII.run31.water2.chk
%nprocshared=20
%mem=10GB
%nosave
#b3lyp/svp scf=(tight,noincore,xqc) Test 
#IOP(5/87=12) Density=Current Pop=(MK,readradii) iop(6/33=2) iop(6/42=6)

loop4.holoCaM-CaMKII.run31.water2 

   -3  1 
   C     91.16000000    41.42000000    33.79000000
   C     91.67000000    40.44000000    34.84000000
   O     91.77000000    40.76000000    36.02000000
   H     90.26300000    41.91600000    34.16200000
   H     91.92800000    42.16600000    33.58500000
   H     90.92300000    40.88000000    32.87300000
   N     92.01000000    39.22000000    34.42000000
   C     92.19000000    38.12000000    35.35000000
   C     93.59000000    38.05000000    35.93000000
   O     94.52000000    37.54000000    35.29000000
   C     91.85000000    36.87000000    34.55000000
   C     92.10000000    35.60000000    35.35000000
   O     91.79000000    35.64000000    36.56000000
   O     92.61000000    34.57000000    34.84000000
   H     91.79000000    39.08000000    33.45000000
   H     91.57000000    38.26000000    36.24000000
   H     92.50000000    36.90000000    33.67000000
   H     90.83000000    36.77000000    34.18000000
   N     93.84000000    38.39000000    37.19000000
   C     95.10000000    38.44000000    37.91000000
   C     95.28000000    37.22000000    38.79000000
   O     96.41000000    36.87000000    39.13000000
   C     95.13000000    39.77000000    38.67000000
   C     95.09000000    40.98000000    37.74000000
   C     96.25000000    40.00000000    39.68000000
   C     96.17000000    41.17000000    36.69000000
   H     93.04000000    38.77000000    37.67000000
   H     95.98000000    38.32000000    37.27000000
   H     94.20000000    39.77000000    39.23000000
   H     95.05000000    41.94000000    38.26000000
   H     94.14000000    40.94000000    37.21000000
   H     95.87000000    39.45000000    40.54000000
   H     97.19000000    39.64000000    39.27000000
   H     96.32000000    41.06000000    39.91000000
   H     95.96000000    42.07000000    36.12000000
   H     97.15000000    41.33000000    37.14000000
   H     96.17000000    40.32000000    36.00000000
   N     94.22000000    36.52000000    39.20000000
   C     94.40000000    35.28000000    39.94000000
   C     94.61000000    34.03000000    39.10000000
   O     95.32000000    33.17000000    39.61000000
   C     93.17000000    35.04000000    40.82000000
   C     91.87000000    35.01000000    40.03000000
   O     91.46000000    33.96000000    39.49000000
   O     91.27000000    36.08000000    39.83000000
   H     93.31000000    36.94000000    39.09000000
   H     95.27000000    35.42000000    40.57000000
   H     93.02000000    35.79000000    41.59000000
   H     93.28000000    34.07000000    41.30000000
   N     94.23000000    34.13000000    37.82000000
   C     94.65000000    33.14000000    36.84000000
   C     94.00000000    31.77000000    36.84000000
   O     94.55000000    30.76000000    36.40000000
   H     93.78000000    34.97000000    37.49000000
   H     95.72000000    32.99000000    36.97000000
   H     94.40000000    33.52000000    35.85000000
   N     92.81000000    31.73000000    37.43000000
   C     91.93000000    30.60000000    37.21000000
   C     91.42000000    30.62000000    35.77000000
   O     90.91000000    29.63000000    35.26000000
   C     90.64000000    30.70000000    38.02000000
   C     89.87000000    32.01000000    37.93000000
   O     89.02000000    32.29000000    38.81000000
   O     90.00000000    32.81000000    36.98000000
   H     92.44000000    32.57000000    37.85000000
   H     92.46000000    29.66000000    37.41000000
   H     90.93000000    30.53000000    39.05000000
   H     90.00000000    29.82000000    37.91000000
   N     91.62000000    31.69000000    35.00000000
   C     91.25000000    31.87000000    33.61000000
   C     89.91000000    32.48000000    33.25000000
   O     89.44000000    32.31000000    32.13000000
   H     92.04000000    32.47000000    35.49000000
   H     91.27000000    30.84000000    33.25000000
   H     91.91000000    32.54000000    33.06000000
   N     89.24000000    33.14000000    34.20000000
   C     87.84000000    33.52000000    34.13000000
   C     87.62000000    34.88000000    34.79000000
   O     88.42000000    35.29000000    35.62000000
   C     87.02000000    32.49000000    34.90000000
   C     86.63000000    31.29000000    34.04000000
   C     86.03000000    30.09000000    34.76000000
   N     86.26000000    28.85000000    34.32000000
   O     85.37000000    30.20000000    35.79000000
   H     89.65000000    33.29000000    35.10000000
   H     87.52000000    33.70000000    33.10000000
   H     86.11000000    32.88000000    35.34000000
   H     87.56000000    32.15000000    35.78000000
   H     87.49000000    30.87000000    33.53000000
   H     85.90000000    31.55000000    33.27000000
   H     86.84000000    28.73000000    33.50000000
   H     85.82000000    28.07000000    34.77000000
   N     86.63000000    35.63000000    34.30000000
   C     86.44000000    37.02000000    34.67000000
   C     85.15000000    37.23000000    35.44000000
   O     84.06000000    37.37000000    34.88000000
   C     86.44000000    38.01000000    33.51000000
   C     86.42000000    39.50000000    33.81000000
   C     87.71000000    37.81000000    32.69000000
   H     86.17000000    35.23000000    33.50000000
   H     87.28000000    37.28000000    35.32000000
   H     85.64000000    37.78000000    32.80000000
   H     87.35000000    39.70000000    34.33000000
   H     86.33000000    40.10000000    32.90000000
   H     85.51000000    39.72000000    34.37000000
   H     88.62000000    37.90000000    33.28000000
   H     87.69000000    36.80000000    32.28000000
   H     87.83000000    38.55000000    31.89000000
   N     85.24000000    37.38000000    36.76000000
   C     84.13000000    37.72000000    37.62000000
   C     83.44000000    39.05000000    37.34000000
   O     84.15000000    39.91000000    36.82000000
   C     84.56000000    37.61000000    39.08000000
   C     83.38000000    37.67000000    40.05000000
   N     82.30000000    36.92000000    39.85000000
   O     83.29000000    38.58000000    40.86000000
   H     86.15000000    37.32000000    37.20000000
   H     83.45000000    36.89000000    37.42000000
   H     85.31000000    38.35000000    39.37000000
   H     84.94000000    36.61000000    39.26000000
   H     82.19000000    36.21000000    39.14000000
   H     81.51000000    36.89000000    40.48000000
   N     82.20000000    39.29000000    37.77000000
   C     81.62000000    40.59000000    37.54000000
   C     82.42000000    41.64000000    38.30000000
   O     82.64000000    42.72000000    37.75000000
   C     80.16000000    40.57000000    38.00000000
   C     79.47000000    41.91000000    37.89000000
   C     78.94000000    42.39000000    36.69000000
   C     79.50000000    42.76000000    39.00000000
   C     78.44000000    43.69000000    36.56000000
   C     78.94000000    44.04000000    38.93000000
   C     78.36000000    44.48000000    37.72000000
   O     77.72000000    45.68000000    37.73000000
   H     81.67000000    38.50000000    38.12000000
   H     81.78000000    40.80000000    36.48000000
   H     80.20000000    40.33000000    39.06000000
   H     79.65000000    39.79000000    37.44000000
   H     78.86000000    41.68000000    35.88000000
   H     79.96000000    42.46000000    39.93000000
   H     77.90000000    43.97000000    35.67000000
   H     78.90000000    44.68000000    39.80000000
   H     77.85000000    46.19000000    38.54000000
   N     83.05000000    41.30000000    39.43000000
   C     83.98000000    42.23000000    40.02000000
   C     85.25000000    42.47000000    39.22000000
   O     85.74000000    43.59000000    39.13000000
   C     84.31000000    42.04000000    41.50000000
   C     83.01000000    42.39000000    42.22000000
   C     83.13000000    42.13000000    43.71000000
   O     84.17000000    42.40000000    44.35000000
   O     82.18000000    41.54000000    44.27000000
   H     82.99000000    40.36000000    39.79000000
   H     83.44000000    43.18000000    39.97000000
   H     85.09000000    42.72000000    41.82000000
   H     84.61000000    41.01000000    41.69000000
   H     82.20000000    41.77000000    41.84000000
   H     82.72000000    43.43000000    42.04000000
   N     85.81000000    41.48000000    38.52000000
   C     86.96000000    41.66000000    37.64000000
   C     86.61000000    42.46000000    36.40000000
   O     87.29000000    43.40000000    35.99000000
   C     87.59000000    40.32000000    37.27000000
   C     88.15000000    39.58000000    38.48000000
   C     88.57000000    38.19000000    38.05000000
   O     89.79000000    37.88000000    38.01000000
   O     87.81000000    37.21000000    37.95000000
   H     85.53000000    40.52000000    38.64000000
   H     87.75000000    42.11000000    38.24000000
   H     88.47000000    40.50000000    36.66000000
   H     86.79000000    39.71000000    36.84000000
   H     87.36000000    39.55000000    39.23000000
   H     89.00000000    40.14000000    38.87000000
   N     85.41000000    42.20000000    35.86000000
   C     84.85000000    42.83000000    34.68000000
   H     83.95500000    43.38700000    34.95600000
   H     85.58300000    43.51200000    34.24900000
   H     84.59000000    42.06500000    33.94800000
   H     84.87000000    41.45000000    36.27000000
  Ca     89.45000000    35.21000000    37.98000000
   O     88.16000000    35.10000000    40.57000000
   H     87.50000000    34.44000000    40.38000000
   H     88.09000000    35.24000000    41.51000000
   O     86.97000000    33.93000000    38.07000000
   H     87.26000000    33.28000000    38.72000000
   H     86.06000000    33.69000000    37.88000000

Ca 1.00



