%chk=loop3.apoCaM-CA-Ng.Init31.run19.water5.chk
%nprocshared=20
%mem=10GB
%nosave
#b3lyp/svp scf=(tight,noincore,xqc) Test 
#IOP(5/87=12) Density=Current Pop=(MK,readradii) iop(6/33=2) iop(6/42=6)

loop3.apoCaM-CA-Ng.Init31.run19.water5 

   0  1 
   C     87.13000000    74.11000000    26.01000000
   C     88.58000000    73.72000000    26.26000000
   O     88.81000000    72.76000000    26.98000000
   H     86.53200000    73.86400000    26.88700000
   H     87.06900000    75.18100000    25.81800000
   H     86.75000000    73.56300000    25.14700000
   N     89.60000000    74.35000000    25.67000000
   C     90.97000000    74.06000000    26.08000000
   C     91.40000000    74.56000000    27.45000000
   O     91.84000000    73.80000000    28.30000000
   C     91.94000000    74.65000000    25.06000000
   C     91.69000000    76.03000000    24.46000000
   O     92.52000000    76.42000000    23.60000000
   O     90.73000000    76.74000000    24.82000000
   H     89.42000000    75.21000000    25.18000000
   H     91.28000000    73.02000000    26.11000000
   H     91.90000000    73.95000000    24.22000000
   H     92.92000000    74.67000000    25.52000000
   N     91.27000000    75.88000000    27.62000000
   C     91.62000000    76.73000000    28.74000000
   C     93.14000000    76.76000000    28.86000000
   O     93.85000000    77.21000000    27.97000000
   C     91.02000000    78.11000000    28.48000000
   C     91.13000000    79.05000000    29.68000000
   C     91.01000000    80.48000000    29.17000000
   C     91.10000000    81.44000000    30.35000000
   N     91.44000000    82.84000000    30.04000000
   H     90.79000000    76.28000000    26.83000000
   H     91.23000000    76.34000000    29.68000000
   H     89.97000000    77.93000000    28.23000000
   H     91.60000000    78.47000000    27.63000000
   H     92.11000000    78.94000000    30.15000000
   H     90.43000000    78.81000000    30.48000000
   H     90.13000000    80.73000000    28.58000000
   H     91.87000000    80.64000000    28.53000000
   H     91.77000000    81.04000000    31.12000000
   H     90.08000000    81.49000000    30.74000000
   H     91.68000000    83.40000000    30.84000000
   H     92.25000000    82.90000000    29.43000000
   H     90.68000000    83.28000000    29.55000000
   N     93.56000000    76.10000000    29.94000000
   C     94.94000000    75.83000000    30.31000000
   C     95.68000000    74.88000000    29.38000000
   O     96.89000000    74.73000000    29.27000000
   C     94.96000000    75.28000000    31.74000000
   C     93.84000000    74.27000000    32.00000000
   O     94.11000000    73.05000000    32.02000000
   O     92.68000000    74.66000000    32.26000000
   H     92.86000000    75.89000000    30.63000000
   H     95.53000000    76.74000000    30.31000000
   H     94.88000000    76.03000000    32.52000000
   H     95.89000000    74.75000000    31.94000000
   N     94.93000000    74.04000000    28.65000000
   C     95.34000000    73.30000000    27.48000000
   C     95.62000000    74.21000000    26.30000000
   O     95.62000000    75.43000000    26.45000000
   H     93.94000000    74.21000000    28.73000000
   H     94.52000000    72.62000000    27.23000000
   H     96.22000000    72.68000000    27.65000000
   N     96.04000000    73.72000000    25.13000000
   C     96.17000000    72.34000000    24.70000000
   C     94.90000000    71.94000000    23.96000000
   O     94.17000000    72.81000000    23.51000000
   C     97.44000000    72.17000000    23.86000000
   C     98.78000000    72.56000000    24.47000000
   N     99.64000000    73.29000000    23.75000000
   O     99.19000000    72.14000000    25.54000000
   H     96.42000000    74.32000000    24.41000000
   H     96.29000000    71.66000000    25.54000000
   H     97.40000000    72.65000000    22.88000000
   H     97.49000000    71.10000000    23.68000000
   H     99.37000000    73.49000000    22.79000000
   H    100.60000000    73.42000000    24.04000000
   N     94.70000000    70.66000000    23.62000000
   C     95.32000000    69.37000000    23.82000000
   C     95.18000000    68.85000000    25.24000000
   O     95.16000000    69.60000000    26.21000000
   H     93.86000000    70.62000000    23.05000000
   H     96.37000000    69.36000000    23.55000000
   H     94.80000000    68.68000000    23.16000000
   N     94.93000000    67.55000000    25.38000000
   C     94.50000000    66.77000000    26.53000000
   C     95.70000000    66.30000000    27.34000000
   O     96.80000000    66.19000000    26.81000000
   C     93.77000000    65.55000000    25.99000000
   C     92.37000000    65.76000000    25.46000000
   C     91.39000000    66.37000000    26.24000000
   C     92.09000000    65.34000000    24.15000000
   C     90.07000000    66.33000000    25.76000000
   C     90.76000000    65.20000000    23.74000000
   C     89.73000000    65.67000000    24.57000000
   O     88.41000000    65.59000000    24.22000000
   H     94.85000000    66.92000000    24.59000000
   H     93.83000000    67.33000000    27.18000000
   H     93.65000000    64.96000000    26.90000000
   H     94.39000000    64.96000000    25.31000000
   H     91.68000000    66.80000000    27.19000000
   H     92.86000000    65.01000000    23.47000000
   H     89.27000000    66.73000000    26.37000000
   H     90.54000000    64.70000000    22.80000000
   H     88.36000000    65.18000000    23.35000000
   N     95.51000000    65.95000000    28.62000000
   C     96.60000000    65.62000000    29.51000000
   C     96.30000000    64.38000000    30.34000000
   O     97.28000000    63.68000000    30.56000000
   C     97.03000000    66.85000000    30.32000000
   C     95.98000000    67.26000000    31.35000000
   C     98.37000000    66.57000000    31.00000000
   C     96.33000000    68.56000000    32.07000000
   H     94.59000000    65.95000000    29.04000000
   H     97.53000000    65.43000000    28.97000000
   H     97.11000000    67.71000000    29.66000000
   H     96.01000000    66.48000000    32.11000000
   H     95.02000000    67.33000000    30.84000000
   H     98.83000000    67.50000000    31.32000000
   H     98.31000000    65.85000000    31.82000000
   H     99.07000000    66.20000000    30.25000000
   H     97.21000000    68.31000000    32.67000000
   H     96.42000000    69.29000000    31.27000000
   H     95.42000000    68.74000000    32.64000000
   N     95.06000000    63.95000000    30.59000000
   C     94.73000000    62.86000000    31.50000000
   C     93.54000000    63.37000000    32.30000000
   O     92.70000000    64.10000000    31.77000000
   C     94.49000000    61.55000000    30.76000000
   O     95.50000000    61.32000000    29.80000000
   H     94.34000000    64.43000000    30.08000000
   H     95.56000000    62.67000000    32.18000000
   H     93.56000000    61.47000000    30.20000000
   H     94.36000000    60.71000000    31.45000000
   H     95.91000000    62.14000000    29.51000000
   N     93.48000000    62.92000000    33.56000000
   C     92.37000000    63.09000000    34.48000000
   C     92.11000000    64.46000000    35.07000000
   O     92.81000000    65.44000000    34.80000000
   C     92.51000000    61.96000000    35.49000000
   H     94.17000000    62.27000000    33.88000000
   H     91.45000000    62.71000000    34.03000000
   H     91.67000000    61.88000000    36.19000000
   H     92.55000000    61.01000000    34.96000000
   H     93.42000000    62.03000000    36.08000000
   N     90.92000000    64.59000000    35.65000000
   C     90.25000000    65.77000000    36.18000000
   C     89.94000000    66.84000000    35.15000000
   O     89.28000000    67.81000000    35.53000000
   C     90.87000000    66.21000000    37.50000000
   H     90.35000000    63.76000000    35.57000000
   H     89.24000000    65.46000000    36.46000000
   H     91.93000000    66.42000000    37.45000000
   H     90.42000000    67.19000000    37.69000000
   H     90.69000000    65.44000000    38.25000000
   N     90.18000000    66.63000000    33.85000000
   C     89.78000000    67.65000000    32.89000000
   C     88.33000000    67.52000000    32.44000000
   O     87.64000000    68.52000000    32.23000000
   C     90.78000000    67.59000000    31.74000000
   C     92.18000000    68.08000000    32.11000000
   C     92.11000000    69.57000000    32.42000000
   O     91.70000000    70.37000000    31.56000000
   O     92.45000000    70.00000000    33.54000000
   H     90.65000000    65.79000000    33.56000000
   H     89.82000000    68.63000000    33.37000000
   H     90.34000000    68.18000000    30.94000000
   H     90.81000000    66.58000000    31.34000000
   H     92.92000000    67.87000000    31.33000000
   H     92.55000000    67.54000000    32.98000000
   N     87.89000000    66.29000000    32.19000000
   C     86.63000000    65.89000000    31.60000000
   H     85.90100000    66.69000000    31.72500000
   H     86.77200000    65.69200000    30.53800000
   H     86.26700000    64.98800000    32.09300000
   H     88.61000000    65.59000000    32.22000000
  Ca     91.62000000    72.43000000    32.97000000
   O     92.49000000    72.55000000    35.42000000
   H     91.83000000    72.63000000    36.11000000
   H     93.31000000    72.82000000    35.83000000
   O     89.80000000    71.21000000    34.70000000
   H     88.87000000    71.16000000    34.48000000
   H     89.87000000    70.69000000    35.51000000
   O     90.53000000    73.26000000    30.75000000
   H     89.85000000    73.92000000    30.61000000
   H     90.88000000    73.08000000    29.87000000
   O     89.98000000    74.42000000    33.77000000
   H     90.38000000    75.29000000    33.88000000
   H     89.05000000    74.56000000    33.94000000
   O     88.83000000    71.27000000    32.00000000
   H     89.19000000    71.20000000    31.12000000
   H     88.34000000    70.45000000    32.12000000

Ca 1.00



