%chk=loop4.apoCaM-CA-Ng.Init293.run16.water4.chk
%nprocshared=20
%mem=10GB
%nosave
#b3lyp/svp scf=(tight,noincore,xqc) Test 
#IOP(5/87=12) Density=Current Pop=(MK,readradii) iop(6/33=2) iop(6/42=6)

loop4.apoCaM-CA-Ng.Init293.run16.water4 

   -3  1 
   C     57.29000000    32.82000000    22.62000000
   C     58.38000000    33.84000000    22.34000000
   O     59.52000000    33.38000000    22.36000000
   H     56.40100000    33.07100000    22.04200000
   H     57.63900000    31.82700000    22.33600000
   H     57.04700000    32.83000000    23.68200000
   N     58.14000000    35.15000000    22.22000000
   C     59.13000000    36.16000000    21.91000000
   C     60.07000000    35.93000000    20.73000000
   O     60.99000000    35.12000000    20.71000000
   C     59.91000000    36.76000000    23.08000000
   C     60.63000000    35.78000000    24.00000000
   O     60.15000000    35.58000000    25.14000000
   O     61.67000000    35.21000000    23.62000000
   H     57.16000000    35.37000000    22.12000000
   H     58.46000000    36.99000000    21.69000000
   H     59.27000000    37.43000000    23.65000000
   H     60.64000000    37.44000000    22.65000000
   N     59.70000000    36.70000000    19.70000000
   C     60.30000000    36.74000000    18.38000000
   C     61.77000000    37.16000000    18.34000000
   O     62.64000000    36.69000000    19.07000000
   C     60.00000000    35.47000000    17.59000000
   C     60.27000000    35.55000000    16.09000000
   C     58.61000000    34.89000000    17.82000000
   C     59.35000000    36.46000000    15.27000000
   H     58.99000000    37.41000000    19.78000000
   H     59.74000000    37.53000000    17.88000000
   H     60.72000000    34.74000000    17.97000000
   H     60.21000000    34.54000000    15.67000000
   H     61.27000000    35.93000000    15.93000000
   H     57.87000000    35.65000000    17.60000000
   H     58.40000000    34.11000000    17.08000000
   H     58.47000000    34.43000000    18.80000000
   H     59.56000000    36.29000000    14.21000000
   H     58.32000000    36.22000000    15.54000000
   H     59.59000000    37.49000000    15.52000000
   N     62.08000000    37.95000000    17.32000000
   C     63.12000000    38.95000000    17.19000000
   C     64.48000000    38.57000000    17.76000000
   O     64.90000000    39.17000000    18.75000000
   C     62.58000000    40.21000000    17.86000000
   C     61.35000000    40.91000000    17.31000000
   O     60.59000000    40.26000000    16.55000000
   O     61.17000000    42.11000000    17.61000000
   H     61.29000000    38.10000000    16.71000000
   H     63.26000000    39.21000000    16.13000000
   H     63.35000000    40.99000000    17.78000000
   H     62.36000000    40.05000000    18.91000000
   N     65.17000000    37.54000000    17.26000000
   C     64.92000000    37.00000000    15.94000000
   C     65.43000000    37.82000000    14.75000000
   O     66.31000000    38.65000000    14.91000000
   H     66.00000000    37.35000000    17.79000000
   H     63.87000000    36.77000000    15.79000000
   H     65.50000000    36.08000000    15.92000000
   N     64.87000000    37.56000000    13.57000000
   C     63.79000000    36.67000000    13.18000000
   C     63.92000000    36.12000000    11.77000000
   O     64.60000000    36.78000000    10.98000000
   C     62.51000000    37.50000000    13.27000000
   C     62.46000000    38.74000000    12.39000000
   O     63.07000000    39.75000000    12.81000000
   O     61.87000000    38.70000000    11.29000000
   H     65.26000000    38.01000000    12.76000000
   H     63.66000000    35.80000000    13.84000000
   H     62.37000000    37.82000000    14.31000000
   H     61.64000000    36.92000000    12.99000000
   N     63.40000000    34.95000000    11.41000000
   C     62.53000000    34.09000000    12.19000000
   C     62.11000000    32.81000000    11.48000000
   O     60.91000000    32.66000000    11.26000000
   H     63.56000000    34.65000000    10.45000000
   H     61.64000000    34.63000000    12.49000000
   H     62.98000000    33.79000000    13.13000000
   N     63.04000000    31.90000000    11.17000000
   C     62.71000000    30.55000000    10.74000000
   C     62.16000000    29.67000000    11.85000000
   O     61.57000000    28.62000000    11.64000000
   C     63.95000000    29.95000000    10.07000000
   C     64.27000000    30.58000000     8.72000000
   C     63.08000000    30.47000000     7.77000000
   N     62.30000000    31.55000000     7.65000000
   O     62.68000000    29.46000000     7.21000000
   H     64.02000000    32.12000000    11.20000000
   H     61.89000000    30.59000000    10.02000000
   H     63.71000000    28.89000000    10.00000000
   H     64.84000000    30.03000000    10.70000000
   H     65.21000000    30.14000000     8.39000000
   H     64.53000000    31.62000000     8.88000000
   H     62.60000000    32.44000000     8.01000000
   H     61.71000000    31.53000000     6.83000000
   N     62.30000000    30.08000000    13.11000000
   C     61.84000000    29.44000000    14.33000000
   C     62.72000000    28.30000000    14.80000000
   O     63.74000000    27.95000000    14.22000000
   C     61.68000000    30.55000000    15.36000000
   C     60.66000000    31.61000000    14.95000000
   C     62.98000000    31.28000000    15.68000000
   H     62.90000000    30.89000000    13.20000000
   H     60.89000000    29.00000000    14.01000000
   H     61.34000000    30.14000000    16.31000000
   H     59.72000000    31.06000000    14.88000000
   H     60.44000000    32.35000000    15.72000000
   H     60.78000000    32.03000000    13.96000000
   H     63.78000000    30.56000000    15.86000000
   H     63.23000000    31.93000000    14.85000000
   H     62.95000000    31.84000000    16.62000000
   N     62.14000000    27.59000000    15.77000000
   C     62.60000000    26.32000000    16.30000000
   C     63.94000000    26.17000000    17.00000000
   O     64.03000000    25.89000000    18.20000000
   C     62.51000000    25.20000000    15.26000000
   C     62.98000000    23.86000000    15.83000000
   N     64.13000000    23.33000000    15.40000000
   O     62.26000000    23.24000000    16.61000000
   H     61.27000000    27.91000000    16.16000000
   H     61.87000000    26.01000000    17.04000000
   H     63.22000000    25.46000000    14.48000000
   H     61.48000000    25.12000000    14.90000000
   H     64.79000000    23.93000000    14.91000000
   H     64.49000000    22.43000000    15.67000000
   N     64.95000000    26.76000000    16.37000000
   C     66.28000000    26.86000000    16.94000000
   C     66.31000000    27.87000000    18.08000000
   O     65.85000000    29.00000000    17.94000000
   C     67.22000000    27.17000000    15.78000000
   C     68.69000000    27.13000000    16.12000000
   C     69.52000000    26.13000000    15.60000000
   C     69.29000000    28.14000000    16.89000000
   C     70.88000000    26.07000000    15.92000000
   C     70.67000000    28.12000000    17.10000000
   C     71.52000000    27.08000000    16.66000000
   O     72.87000000    27.07000000    16.86000000
   H     64.69000000    27.36000000    15.60000000
   H     66.54000000    25.89000000    17.36000000
   H     66.98000000    28.14000000    15.34000000
   H     67.11000000    26.32000000    15.11000000
   H     69.13000000    25.33000000    14.99000000
   H     68.76000000    28.99000000    17.30000000
   H     71.43000000    25.26000000    15.45000000
   H     71.07000000    29.02000000    17.54000000
   H     73.05000000    27.61000000    17.64000000
   N     66.76000000    27.47000000    19.27000000
   C     66.67000000    28.14000000    20.55000000
   C     65.29000000    28.38000000    21.14000000
   O     65.19000000    28.96000000    22.22000000
   C     67.55000000    29.39000000    20.61000000
   C     69.05000000    29.12000000    20.70000000
   C     69.99000000    30.31000000    20.65000000
   O     69.54000000    31.43000000    20.32000000
   O     71.20000000    30.06000000    20.84000000
   H     67.12000000    26.53000000    19.30000000
   H     67.13000000    27.50000000    21.30000000
   H     67.34000000    30.00000000    21.49000000
   H     67.37000000    29.91000000    19.68000000
   H     69.40000000    28.44000000    19.92000000
   H     69.15000000    28.61000000    21.65000000
   N     64.26000000    27.89000000    20.44000000
   C     62.87000000    27.92000000    20.82000000
   C     62.32000000    26.68000000    21.51000000
   O     61.12000000    26.66000000    21.77000000
   C     61.99000000    28.30000000    19.63000000
   C     62.09000000    29.72000000    19.08000000
   C     62.06000000    30.80000000    20.15000000
   O     62.81000000    31.79000000    19.99000000
   O     61.41000000    30.83000000    21.22000000
   H     64.55000000    27.57000000    19.53000000
   H     62.77000000    28.69000000    21.59000000
   H     60.94000000    28.24000000    19.94000000
   H     62.07000000    27.56000000    18.83000000
   H     61.28000000    29.91000000    18.37000000
   H     62.98000000    29.76000000    18.46000000
   N     63.13000000    25.66000000    21.80000000
   C     62.70000000    24.56000000    22.64000000
   H     61.69600000    24.25100000    22.34800000
   H     63.38600000    23.72200000    22.52100000
   H     62.69200000    24.87900000    23.68200000
   H     64.09000000    25.57000000    21.50000000
  Ca     62.15000000    33.14000000    22.12000000
   O     63.82000000    31.30000000    22.97000000
   H     63.42000000    30.96000000    23.77000000
   H     64.58000000    30.73000000    22.83000000
   O     64.44000000    34.39000000    23.35000000
   H     64.41000000    35.35000000    23.36000000
   H     65.37000000    34.18000000    23.29000000
   O     61.15000000    32.47000000    24.49000000
   H     61.55000000    32.49000000    25.36000000
   H     60.26000000    32.79000000    24.64000000
   O     63.62000000    34.84000000    20.67000000
   H     62.95000000    35.30000000    20.17000000
   H     64.45000000    35.16000000    20.31000000

Ca 1.00



