%chk=loop3.apoCaM-CA-Ng.Init293.run38.water4.chk
%nprocshared=20
%mem=10GB
%nosave
#b3lyp/svp scf=(tight,noincore,xqc) Test 
#IOP(5/87=12) Density=Current Pop=(MK,readradii) iop(6/33=2) iop(6/42=6)

loop3.apoCaM-CA-Ng.Init293.run38.water4 

   0  1 
   C     17.10000000    67.95000000   -12.68000000
   C     16.51000000    68.12000000   -14.07000000
   O     16.30000000    67.17000000   -14.82000000
   H     17.98900000    68.57300000   -12.58500000
   H     16.36500000    68.25000000   -11.93300000
   H     17.37100000    66.90600000   -12.52500000
   N     16.34000000    69.39000000   -14.43000000
   C     15.93000000    69.84000000   -15.74000000
   C     14.42000000    69.62000000   -15.87000000
   O     13.64000000    70.11000000   -15.05000000
   C     16.20000000    71.34000000   -15.78000000
   C     17.68000000    71.65000000   -15.64000000
   O     18.23000000    71.71000000   -14.51000000
   O     18.30000000    71.85000000   -16.70000000
   H     16.35000000    70.15000000   -13.75000000
   H     16.40000000    69.25000000   -16.54000000
   H     15.55000000    71.85000000   -15.07000000
   H     15.76000000    71.67000000   -16.72000000
   N     14.11000000    68.89000000   -16.94000000
   C     12.80000000    68.81000000   -17.55000000
   C     12.14000000    70.17000000   -17.77000000
   O     10.92000000    70.31000000   -17.69000000
   C     11.97000000    67.84000000   -16.71000000
   C     12.43000000    66.38000000   -16.71000000
   C     11.57000000    65.48000000   -15.83000000
   C     12.21000000    64.11000000   -15.66000000
   N     12.32000000    63.39000000   -16.94000000
   H     14.91000000    68.66000000   -17.50000000
   H     12.96000000    68.45000000   -18.56000000
   H     10.93000000    67.94000000   -17.01000000
   H     11.96000000    68.12000000   -15.66000000
   H     13.47000000    66.35000000   -16.41000000
   H     12.47000000    66.02000000   -17.74000000
   H     10.58000000    65.31000000   -16.24000000
   H     11.52000000    65.93000000   -14.84000000
   H     11.58000000    63.50000000   -15.01000000
   H     13.20000000    64.25000000   -15.21000000
   H     12.36000000    62.39000000   -16.81000000
   H     11.54000000    63.57000000   -17.55000000
   H     13.18000000    63.74000000   -17.36000000
   N     12.97000000    71.20000000   -17.94000000
   C     12.48000000    72.53000000   -18.22000000
   C     13.46000000    73.19000000   -19.18000000
   O     14.67000000    73.21000000   -18.96000000
   C     12.39000000    73.23000000   -16.86000000
   C     12.16000000    74.72000000   -17.01000000
   O     13.12000000    75.50000000   -17.20000000
   O     11.00000000    75.19000000   -16.99000000
   H     13.97000000    71.04000000   -17.91000000
   H     11.49000000    72.45000000   -18.66000000
   H     13.28000000    72.95000000   -16.28000000
   H     11.53000000    72.94000000   -16.26000000
   N     12.88000000    73.58000000   -20.32000000
   C     13.58000000    74.09000000   -21.48000000
   C     13.54000000    75.61000000   -21.42000000
   O     12.58000000    76.14000000   -20.87000000
   H     11.88000000    73.50000000   -20.48000000
   H     13.08000000    73.71000000   -22.37000000
   H     14.62000000    73.75000000   -21.50000000
   N     14.60000000    76.35000000   -21.78000000
   C     14.70000000    77.79000000   -21.68000000
   C     15.31000000    78.37000000   -22.95000000
   O     15.55000000    79.57000000   -22.99000000
   C     15.41000000    78.28000000   -20.43000000
   C     14.72000000    77.74000000   -19.18000000
   N     15.27000000    76.61000000   -18.73000000
   O     13.91000000    78.37000000   -18.50000000
   H     15.43000000    75.84000000   -22.06000000
   H     13.72000000    78.26000000   -21.79000000
   H     15.32000000    79.36000000   -20.42000000
   H     16.48000000    78.05000000   -20.43000000
   H     15.99000000    76.10000000   -19.22000000
   H     14.92000000    76.23000000   -17.86000000
   N     15.59000000    77.61000000   -24.01000000
   C     16.48000000    77.99000000   -25.08000000
   C     17.94000000    78.03000000   -24.64000000
   O     18.35000000    77.29000000   -23.76000000
   H     15.24000000    76.66000000   -23.90000000
   H     16.20000000    79.02000000   -25.33000000
   H     16.27000000    77.42000000   -25.98000000
   N     18.71000000    78.91000000   -25.29000000
   C     20.02000000    79.41000000   -24.94000000
   C     20.15000000    80.02000000   -23.55000000
   O     21.15000000    80.65000000   -23.23000000
   C     21.09000000    78.42000000   -25.40000000
   C     22.54000000    78.85000000   -25.38000000
   C     22.93000000    79.88000000   -26.25000000
   C     23.44000000    78.21000000   -24.51000000
   C     24.28000000    80.26000000   -26.25000000
   C     24.78000000    78.59000000   -24.55000000
   C     25.21000000    79.58000000   -25.44000000
   O     26.54000000    79.86000000   -25.45000000
   H     18.24000000    79.43000000   -26.01000000
   H     20.16000000    80.17000000   -25.71000000
   H     20.95000000    78.19000000   -26.45000000
   H     21.05000000    77.52000000   -24.79000000
   H     22.21000000    80.36000000   -26.90000000
   H     23.08000000    77.48000000   -23.80000000
   H     24.49000000    81.04000000   -26.97000000
   H     25.41000000    78.04000000   -23.85000000
   H     27.09000000    79.15000000   -25.10000000
   N     19.15000000    79.92000000   -22.67000000
   C     18.95000000    80.62000000   -21.41000000
   C     18.84000000    82.14000000   -21.44000000
   O     17.80000000    82.76000000   -21.21000000
   C     19.97000000    80.24000000   -20.34000000
   C     20.07000000    78.72000000   -20.23000000
   C     19.71000000    80.86000000   -18.97000000
   C     21.47000000    78.28000000   -19.83000000
   H     18.53000000    79.15000000   -22.85000000
   H     18.06000000    80.14000000   -21.01000000
   H     20.92000000    80.70000000   -20.62000000
   H     19.83000000    78.16000000   -21.13000000
   H     19.34000000    78.39000000   -19.49000000
   H     18.82000000    80.41000000   -18.53000000
   H     20.52000000    80.58000000   -18.28000000
   H     19.65000000    81.94000000   -18.98000000
   H     21.88000000    79.03000000   -19.15000000
   H     21.45000000    77.26000000   -19.44000000
   H     21.93000000    78.28000000   -20.82000000
   N     19.83000000    82.87000000   -21.95000000
   C     19.72000000    84.26000000   -22.34000000
   C     19.47000000    85.25000000   -21.21000000
   O     18.97000000    86.35000000   -21.43000000
   C     20.95000000    84.65000000   -23.14000000
   O     20.73000000    84.38000000   -24.51000000
   H     20.65000000    82.36000000   -22.26000000
   H     18.85000000    84.41000000   -22.99000000
   H     21.80000000    84.09000000   -22.74000000
   H     21.18000000    85.70000000   -22.99000000
   H     21.52000000    84.74000000   -24.94000000
   N     19.97000000    85.03000000   -19.99000000
   C     19.78000000    85.82000000   -18.79000000
   C     18.36000000    85.87000000   -18.26000000
   O     18.03000000    86.89000000   -17.65000000
   C     20.54000000    87.13000000   -18.95000000
   H     20.35000000    84.10000000   -19.94000000
   H     20.33000000    85.23000000   -18.05000000
   H     20.35000000    87.76000000   -18.08000000
   H     21.62000000    87.03000000   -19.00000000
   H     20.18000000    87.56000000   -19.89000000
   N     17.52000000    84.88000000   -18.56000000
   C     16.11000000    84.85000000   -18.21000000
   C     15.86000000    84.13000000   -16.89000000
   O     16.58000000    83.19000000   -16.59000000
   C     15.35000000    84.12000000   -19.31000000
   H     17.83000000    84.11000000   -19.15000000
   H     15.69000000    85.84000000   -18.08000000
   H     15.66000000    83.08000000   -19.43000000
   H     14.27000000    84.20000000   -19.14000000
   H     15.64000000    84.65000000   -20.21000000
   N     14.80000000    84.55000000   -16.19000000
   C     14.34000000    83.99000000   -14.93000000
   C     15.29000000    83.93000000   -13.75000000
   O     15.07000000    83.09000000   -12.88000000
   C     13.64000000    82.64000000   -15.08000000
   C     12.69000000    82.48000000   -16.26000000
   C     12.26000000    81.03000000   -16.38000000
   O     12.02000000    80.50000000   -17.49000000
   O     12.20000000    80.35000000   -15.33000000
   H     14.23000000    85.30000000   -16.54000000
   H     13.45000000    84.57000000   -14.69000000
   H     13.05000000    82.55000000   -14.17000000
   H     14.41000000    81.88000000   -15.16000000
   H     13.22000000    82.65000000   -17.20000000
   H     11.81000000    83.08000000   -16.01000000
   N     16.22000000    84.88000000   -13.60000000
   C     17.32000000    84.82000000   -12.66000000
   H     18.13800000    85.44400000   -13.01900000
   H     16.98800000    85.18200000   -11.68700000
   H     17.66300000    83.79000000   -12.56700000
   H     16.26000000    85.53000000   -14.37000000
  Ca     11.99000000    77.90000000   -16.74600000
   O     14.46000000    78.15000000   -15.83600000
   H     15.04000000    77.98000000   -15.08600000
   H     14.85000000    78.90000000   -16.26600000
   O      9.43000000    78.36000000   -16.07600000
   H      8.50000000    78.19000000   -16.24600000
   H      9.45000000    78.73000000   -15.19600000
   O     11.91000000    76.97000000   -14.12600000
   H     12.50000000    77.38000000   -13.48600000
   H     11.55000000    76.21000000   -13.66600000
   O     10.96000000    77.34000000   -19.06600000
   H     11.57000000    76.74000000   -19.49600000
   H     10.12000000    77.19000000   -19.50600000

Ca 1.00



