%chk=loop3.apoCaM-CA-Ng.Init293.run99.water5.chk
%nprocshared=20
%mem=10GB
%nosave
#b3lyp/svp scf=(tight,noincore,xqc) Test 
#IOP(5/87=12) Density=Current Pop=(MK,readradii) iop(6/33=2) iop(6/42=6)

loop3.apoCaM-CA-Ng.Init293.run99.water5 

   0  1 
   C    103.00000000    84.97000000    16.97000000
   C    104.24000000    85.75000000    16.56000000
   O    104.20000000    86.62000000    15.69000000
   H    102.17500000    85.22300000    16.30400000
   H    103.20400000    83.90100000    16.90500000
   H    102.73100000    85.22700000    17.99400000
   N    105.36000000    85.39000000    17.19000000
   C    106.74000000    85.70000000    16.88000000
   C    107.45000000    85.67000000    18.22000000
   O    107.21000000    84.79000000    19.05000000
   C    107.25000000    84.71000000    15.84000000
   C    108.63000000    85.08000000    15.32000000
   O    108.96000000    86.28000000    15.20000000
   O    109.42000000    84.22000000    14.87000000
   H    105.24000000    84.52000000    17.69000000
   H    106.88000000    86.69000000    16.45000000
   H    106.53000000    84.58000000    15.03000000
   H    107.39000000    83.71000000    16.27000000
   N    108.40000000    86.59000000    18.34000000
   C    109.49000000    86.64000000    19.30000000
   C    110.43000000    85.48000000    19.04000000
   O    110.20000000    84.54000000    18.27000000
   C    108.94000000    86.68000000    20.72000000
   C    109.90000000    87.30000000    21.74000000
   C    109.55000000    87.01000000    23.19000000
   C    109.67000000    85.58000000    23.69000000
   N    111.05000000    85.09000000    23.55000000
   H    108.27000000    87.37000000    17.70000000
   H    110.06000000    87.57000000    19.26000000
   H    108.57000000    85.71000000    21.04000000
   H    108.06000000    87.32000000    20.76000000
   H    109.91000000    88.38000000    21.58000000
   H    110.92000000    86.98000000    21.51000000
   H    108.49000000    87.26000000    23.28000000
   H    110.21000000    87.62000000    23.82000000
   H    109.06000000    84.93000000    23.07000000
   H    109.26000000    85.54000000    24.70000000
   H    111.12000000    84.17000000    23.95000000
   H    111.38000000    84.97000000    22.60000000
   H    111.70000000    85.75000000    23.96000000
   N    111.56000000    85.55000000    19.74000000
   C    112.75000000    84.71000000    19.67000000
   C    112.61000000    83.52000000    20.61000000
   O    111.69000000    83.53000000    21.42000000
   C    114.05000000    85.44000000    19.99000000
   C    114.12000000    86.25000000    21.28000000
   O    113.28000000    86.13000000    22.20000000
   O    115.06000000    87.06000000    21.31000000
   H    111.72000000    86.38000000    20.29000000
   H    112.76000000    84.32000000    18.65000000
   H    114.31000000    86.15000000    19.20000000
   H    114.87000000    84.73000000    20.02000000
   N    113.61000000    82.64000000    20.50000000
   C    113.74000000    81.37000000    21.19000000
   C    114.20000000    81.34000000    22.64000000
   O    114.97000000    82.15000000    23.14000000
   H    114.43000000    82.91000000    19.97000000
   H    114.44000000    80.76000000    20.63000000
   H    112.82000000    80.78000000    21.20000000
   N    113.67000000    80.32000000    23.33000000
   C    113.84000000    79.98000000    24.72000000
   C    113.95000000    78.47000000    24.87000000
   O    113.66000000    77.91000000    25.93000000
   C    112.66000000    80.51000000    25.54000000
   C    112.69000000    82.03000000    25.52000000
   N    113.60000000    82.66000000    26.26000000
   O    111.90000000    82.72000000    24.87000000
   H    113.15000000    79.73000000    22.69000000
   H    114.71000000    80.52000000    25.08000000
   H    112.64000000    80.22000000    26.59000000
   H    111.66000000    80.16000000    25.30000000
   H    114.30000000    82.26000000    26.87000000
   H    113.57000000    83.67000000    26.27000000
   N    114.36000000    77.74000000    23.82000000
   C    114.40000000    76.30000000    23.96000000
   C    113.07000000    75.62000000    24.23000000
   O    112.10000000    75.85000000    23.51000000
   H    114.62000000    78.18000000    22.95000000
   H    115.11000000    76.03000000    24.74000000
   H    114.78000000    75.84000000    23.04000000
   N    113.05000000    74.71000000    25.21000000
   C    111.86000000    74.23000000    25.87000000
   C    111.05000000    75.24000000    26.66000000
   O    110.28000000    74.84000000    27.53000000
   C    111.00000000    73.38000000    24.93000000
   C    110.23000000    72.25000000    25.57000000
   C    110.89000000    71.03000000    25.76000000
   C    108.94000000    72.49000000    26.05000000
   C    110.17000000    70.03000000    26.42000000
   C    108.25000000    71.52000000    26.79000000
   C    108.89000000    70.28000000    26.96000000
   O    108.26000000    69.27000000    27.64000000
   H    113.93000000    74.43000000    25.63000000
   H    112.26000000    73.55000000    26.62000000
   H    111.70000000    73.02000000    24.18000000
   H    110.30000000    74.05000000    24.43000000
   H    111.91000000    70.86000000    25.45000000
   H    108.40000000    73.40000000    25.84000000
   H    110.47000000    68.99000000    26.48000000
   H    107.28000000    71.83000000    27.15000000
   H    107.32000000    69.38000000    27.75000000
   N    111.25000000    76.56000000    26.51000000
   C    110.42000000    77.61000000    27.05000000
   C    110.64000000    77.76000000    28.55000000
   O    111.19000000    78.78000000    28.95000000
   C    109.00000000    77.66000000    26.51000000
   C    108.82000000    77.25000000    25.05000000
   C    108.34000000    78.99000000    26.87000000
   C    109.43000000    78.11000000    23.94000000
   H    112.09000000    76.99000000    26.16000000
   H    110.89000000    78.49000000    26.60000000
   H    108.48000000    76.88000000    27.06000000
   H    107.74000000    77.27000000    24.88000000
   H    109.18000000    76.23000000    25.00000000
   H    108.93000000    79.78000000    26.38000000
   H    107.30000000    79.01000000    26.53000000
   H    108.36000000    79.12000000    27.95000000
   H    108.91000000    79.07000000    23.94000000
   H    110.50000000    78.28000000    24.11000000
   H    109.25000000    77.55000000    23.03000000
   N    110.35000000    76.80000000    29.43000000
   C    110.49000000    76.86000000    30.87000000
   C    109.83000000    78.05000000    31.55000000
   O    110.32000000    78.50000000    32.58000000
   C    109.89000000    75.64000000    31.57000000
   O    108.62000000    75.53000000    30.98000000
   H    110.05000000    75.94000000    29.00000000
   H    111.57000000    76.92000000    31.04000000
   H    109.83000000    75.77000000    32.65000000
   H    110.46000000    74.72000000    31.41000000
   H    108.46000000    74.60000000    30.80000000
   N    108.68000000    78.52000000    31.05000000
   C    107.84000000    79.59000000    31.55000000
   C    108.42000000    81.00000000    31.53000000
   O    108.12000000    81.84000000    32.37000000
   C    107.29000000    79.26000000    32.93000000
   H    108.20000000    77.90000000    30.42000000
   H    106.91000000    79.67000000    30.98000000
   H    106.39000000    79.81000000    33.18000000
   H    107.09000000    78.19000000    32.90000000
   H    107.99000000    79.52000000    33.73000000
   N    109.33000000    81.22000000    30.58000000
   C    110.15000000    82.41000000    30.40000000
   C    109.53000000    83.26000000    29.31000000
   O    109.23000000    82.77000000    28.22000000
   C    111.58000000    81.98000000    30.10000000
   H    109.51000000    80.49000000    29.90000000
   H    110.08000000    83.03000000    31.29000000
   H    111.68000000    81.40000000    29.18000000
   H    112.25000000    82.84000000    30.03000000
   H    111.98000000    81.43000000    30.95000000
   N    109.69000000    84.57000000    29.49000000
   C    109.22000000    85.64000000    28.63000000
   C    107.75000000    85.73000000    28.27000000
   O    107.38000000    86.39000000    27.30000000
   C    110.05000000    85.74000000    27.35000000
   C    111.50000000    86.11000000    27.67000000
   C    112.34000000    86.13000000    26.41000000
   O    113.46000000    85.56000000    26.39000000
   O    112.04000000    86.80000000    25.40000000
   H    109.89000000    84.90000000    30.42000000
   H    109.54000000    86.48000000    29.25000000
   H    109.76000000    86.50000000    26.63000000
   H    110.03000000    84.75000000    26.91000000
   H    112.01000000    85.40000000    28.32000000
   H    111.65000000    87.07000000    28.15000000
   N    106.88000000    85.05000000    29.03000000
   C    105.48000000    84.82000000    28.75000000
   H    104.92600000    85.74900000    28.88400000
   H    105.36600000    84.47500000    27.72200000
   H    105.09200000    84.06400000    29.43300000
   H    107.16000000    84.51000000    29.84000000
  Ca    114.45800000    86.97000000    24.47000000
   O    114.56800000    88.90000000    26.17000000
   H    114.43800000    89.84000000    26.03000000
   H    114.84800000    88.83000000    27.08000000
   O    113.41800000    89.16000000    23.37000000
   H    113.83800000    89.30000000    22.52000000
   H    112.66800000    89.75000000    23.36000000
   O    115.52800000    84.74000000    23.44000000
   H    116.39800000    84.62000000    23.07000000
   H    115.19800000    83.85000000    23.57000000
   O    116.27800000    88.60000000    23.35000000
   H    116.34800000    89.43000000    22.89000000
   H    116.92800000    88.04000000    22.94000000
   O    116.67800000    86.48000000    25.86000000
   H    117.25800000    85.73000000    25.79000000
   H    116.88800000    86.87000000    26.71000000

Ca 1.00



