%chk=loop1.holoCaM.run48.water2.chk
%nprocshared=20
%mem=10GB
%nosave
#b3lyp/svp scf=(tight,noincore,xqc) Test 
#IOP(5/87=12) Density=Current Pop=(MK,readradii) iop(6/33=2) iop(6/42=6)

loop1.holoCaM.run48.water2 

   0  1 
   C     56.20000000    72.11000000     1.03000000
   C     54.82000000    71.57000000     1.41000000
   O     54.14000000    71.07000000     0.52000000
   H     56.92800000    71.30000000     1.06300000
   H     56.16400000    72.52400000     0.02200000
   H     56.49200000    72.88900000     1.73400000
   N     54.42000000    71.77000000     2.66000000
   C     53.05000000    71.57000000     3.10000000
   C     52.04000000    72.41000000     2.33000000
   O     52.13000000    73.63000000     2.31000000
   C     53.07000000    71.88000000     4.60000000
   C     51.76000000    71.69000000     5.36000000
   O     51.55000000    72.32000000     6.42000000
   O     50.90000000    70.93000000     4.89000000
   H     55.07000000    72.13000000     3.35000000
   H     52.71000000    70.55000000     2.97000000
   H     53.28000000    72.91000000     4.89000000
   H     53.82000000    71.28000000     5.11000000
   N     51.16000000    71.73000000     1.60000000
   C     50.35000000    72.29000000     0.53000000
   C     48.94000000    72.70000000     0.93000000
   O     48.49000000    73.71000000     0.39000000
   C     50.29000000    71.36000000    -0.68000000
   C     50.01000000    72.21000000    -1.92000000
   C     49.82000000    71.44000000    -3.22000000
   C     49.67000000    72.49000000    -4.33000000
   N     48.35000000    72.39000000    -4.97000000
   H     50.92000000    70.78000000     1.84000000
   H     50.88000000    73.23000000     0.38000000
   H     49.44000000    70.69000000    -0.54000000
   H     51.20000000    70.80000000    -0.89000000
   H     50.84000000    72.91000000    -1.87000000
   H     49.13000000    72.84000000    -1.77000000
   H     48.94000000    70.81000000    -3.11000000
   H     50.70000000    70.80000000    -3.31000000
   H     50.51000000    72.45000000    -5.02000000
   H     49.71000000    73.49000000    -3.90000000
   H     48.06000000    73.28000000    -5.33000000
   H     48.29000000    71.63000000    -5.63000000
   H     47.73000000    72.19000000    -4.19000000
   N     48.38000000    72.09000000     1.97000000
   C     47.16000000    72.52000000     2.64000000
   C     47.38000000    73.21000000     3.98000000
   O     46.57000000    74.01000000     4.44000000
   C     46.16000000    71.39000000     2.83000000
   C     46.76000000    70.16000000     3.50000000
   O     46.15000000    69.07000000     3.52000000
   O     47.86000000    70.24000000     4.09000000
   H     48.68000000    71.17000000     2.26000000
   H     46.67000000    73.25000000     1.99000000
   H     45.72000000    71.19000000     1.85000000
   H     45.31000000    71.67000000     3.45000000
   N     48.58000000    73.16000000     4.57000000
   C     49.00000000    74.03000000     5.65000000
   C     48.52000000    73.52000000     7.00000000
   O     47.77000000    74.24000000     7.64000000
   H     49.22000000    72.47000000     4.22000000
   H     48.63000000    75.04000000     5.43000000
   H     50.09000000    74.02000000     5.64000000
   N     48.89000000    72.31000000     7.44000000
   C     48.47000000    71.68000000     8.67000000
   C     49.53000000    71.34000000     9.72000000
   O     49.29000000    70.92000000    10.85000000
   C     47.64000000    70.44000000     8.38000000
   C     48.27000000    69.57000000     7.30000000
   O     47.65000000    68.73000000     6.61000000
   O     49.52000000    69.58000000     7.21000000
   H     49.67000000    71.92000000     6.92000000
   H     47.82000000    72.40000000     9.17000000
   H     46.68000000    70.74000000     7.96000000
   H     47.46000000    69.79000000     9.23000000
   N     50.77000000    71.64000000     9.33000000
   C     51.98000000    71.29000000    10.03000000
   C     52.43000000    69.84000000     9.85000000
   O     53.26000000    69.32000000    10.59000000
   H     50.91000000    72.01000000     8.40000000
   H     51.91000000    71.49000000    11.10000000
   H     52.76000000    71.94000000     9.62000000
   N     51.86000000    69.15000000     8.86000000
   C     52.27000000    67.81000000     8.51000000
   C     52.48000000    67.57000000     7.02000000
   O     51.76000000    68.18000000     6.23000000
   C     51.36000000    66.73000000     9.08000000
   C     51.28000000    66.75000000    10.60000000
   O     50.03000000    67.13000000     8.82000000
   H     51.31000000    69.70000000     8.22000000
   H     53.25000000    67.61000000     8.95000000
   H     51.64000000    65.76000000     8.67000000
   H     50.00000000    67.95000000     8.32000000
   H     51.00000000    65.77000000    10.99000000
   H     52.25000000    66.95000000    11.05000000
   H     50.64000000    67.54000000    10.99000000
   N     53.39000000    66.70000000     6.59000000
   C     53.62000000    66.44000000     5.18000000
   C     53.28000000    65.00000000     4.80000000
   O     53.74000000    64.08000000     5.47000000
   C     54.98000000    67.03000000     4.84000000
   C     54.87000000    68.54000000     4.67000000
   C     55.55000000    66.43000000     3.56000000
   C     56.22000000    69.25000000     4.60000000
   H     54.09000000    66.32000000     7.21000000
   H     52.90000000    67.06000000     4.63000000
   H     55.68000000    66.78000000     5.64000000
   H     54.37000000    68.95000000     5.55000000
   H     54.30000000    68.70000000     3.75000000
   H     55.74000000    65.36000000     3.64000000
   H     54.98000000    66.64000000     2.65000000
   H     56.59000000    66.73000000     3.41000000
   H     56.08000000    70.31000000     4.83000000
   H     56.79000000    68.92000000     5.47000000
   H     56.64000000    69.03000000     3.61000000
   N     52.34000000    64.84000000     3.87000000
   C     51.76000000    63.59000000     3.42000000
   C     52.38000000    63.16000000     2.10000000
   O     53.23000000    63.89000000     1.61000000
   C     50.24000000    63.63000000     3.43000000
   C     49.60000000    64.53000000     2.37000000
   O     49.71000000    62.33000000     3.24000000
   H     51.98000000    65.70000000     3.49000000
   H     52.04000000    62.83000000     4.16000000
   H     49.86000000    63.98000000     4.39000000
   H     49.08000000    62.12000000     3.93000000
   H     48.52000000    64.46000000     2.25000000
   H     49.75000000    65.54000000     2.74000000
   H     50.14000000    64.47000000     1.42000000
   N     52.04000000    62.01000000     1.50000000
   C     52.80000000    61.42000000     0.42000000
   C     52.85000000    62.26000000    -0.85000000
   O     53.88000000    62.55000000    -1.46000000
   C     52.31000000    60.03000000     0.04000000
   C     53.40000000    59.30000000    -0.74000000
   O     52.05000000    59.18000000     1.13000000
   H     51.24000000    61.55000000     1.90000000
   H     53.84000000    61.34000000     0.73000000
   H     51.42000000    59.96000000    -0.59000000
   H     51.43000000    58.56000000     0.74000000
   H     53.07000000    58.30000000    -1.01000000
   H     53.60000000    59.86000000    -1.65000000
   H     54.36000000    59.38000000    -0.23000000
   N     51.76000000    62.98000000    -1.09000000
   C     51.52000000    63.96000000    -2.13000000
   C     52.41000000    65.19000000    -2.01000000
   O     52.81000000    65.70000000    -3.05000000
   C     50.03000000    64.28000000    -2.15000000
   C     49.23000000    63.04000000    -2.55000000
   C     48.10000000    63.48000000    -3.48000000
   C     46.92000000    62.51000000    -3.42000000
   N     47.07000000    61.34000000    -4.30000000
   H     51.01000000    62.82000000    -0.43000000
   H     51.70000000    63.53000000    -3.12000000
   H     49.85000000    65.06000000    -2.88000000
   H     49.79000000    64.59000000    -1.13000000
   H     48.82000000    62.54000000    -1.67000000
   H     49.82000000    62.37000000    -3.17000000
   H     48.43000000    63.57000000    -4.51000000
   H     47.81000000    64.48000000    -3.17000000
   H     46.01000000    63.07000000    -3.65000000
   H     46.77000000    62.27000000    -2.37000000
   H     47.36000000    61.52000000    -5.25000000
   H     47.63000000    60.67000000    -3.80000000
   H     46.22000000    60.80000000    -4.24000000
   N     52.84000000    65.60000000    -0.81000000
   C     53.64000000    66.74000000    -0.43000000
   C     55.10000000    66.33000000    -0.29000000
   O     56.03000000    67.03000000    -0.67000000
   C     53.15000000    67.31000000     0.90000000
   C     51.89000000    68.17000000     0.85000000
   C     51.06000000    68.22000000     2.12000000
   O     51.24000000    67.51000000     3.14000000
   O     50.10000000    69.02000000     2.11000000
   H     52.54000000    64.90000000    -0.14000000
   H     53.70000000    67.57000000    -1.13000000
   H     53.93000000    67.93000000     1.32000000
   H     53.07000000    66.47000000     1.59000000
   H     51.24000000    67.72000000     0.10000000
   H     52.25000000    69.19000000     0.67000000
   N     55.38000000    65.08000000     0.09000000
   C     56.74000000    64.61000000     0.24000000
   H     57.37700000    65.43700000     0.55300000
   H     56.77200000    63.82200000     0.99300000
   H     57.09700000    64.21800000    -0.71200000
   H     54.63000000    64.44000000     0.30000000
  Ca     49.66000000    68.60000000     4.82000000
   O     49.56000000    65.98000000     5.79000000
   H     49.53000000    65.43000000     6.57000000
   H     48.73000000    65.82000000     5.35000000
   O     47.75000000    66.86000000     3.84000000
   H     47.03000000    67.49000000     3.83000000
   H     47.90000000    66.65000000     2.92000000

Ca 1.00



