%chk=loop3.apoCaM-CA-Ng.Init295.run26.water3.chk
%nprocshared=20
%mem=10GB
%nosave
#b3lyp/svp scf=(tight,noincore,xqc) Test 
#IOP(5/87=12) Density=Current Pop=(MK,readradii) iop(6/33=2) iop(6/42=6)

loop3.apoCaM-CA-Ng.Init295.run26.water3 

   0  1 
   C     91.37000000    32.15000000    59.55000000
   C     92.41000000    31.22000000    60.15000000
   O     93.56000000    31.27000000    59.72000000
   H     90.49500000    32.18300000    60.19900000
   H     91.78900000    33.15200000    59.45500000
   H     91.07800000    31.78300000    58.56600000
   N     92.08000000    30.41000000    61.15000000
   C     93.06000000    29.66000000    61.92000000
   C     94.01000000    28.66000000    61.28000000
   O     93.58000000    27.98000000    60.35000000
   C     92.37000000    28.99000000    63.10000000
   C     93.31000000    28.28000000    64.06000000
   O     93.80000000    28.91000000    65.02000000
   O     93.62000000    27.08000000    63.95000000
   H     91.14000000    30.52000000    61.51000000
   H     93.71000000    30.43000000    62.34000000
   H     91.78000000    28.24000000    62.57000000
   H     91.82000000    29.69000000    63.74000000
   N     95.21000000    28.53000000    61.84000000
   C     96.30000000    27.80000000    61.23000000
   C     96.19000000    26.28000000    61.14000000
   O     96.81000000    25.66000000    60.27000000
   C     97.61000000    28.23000000    61.89000000
   C     97.99000000    29.66000000    61.50000000
   C     99.21000000    30.26000000    62.21000000
   C     99.42000000    31.75000000    61.99000000
   N    100.78000000    32.02000000    62.50000000
   H     95.41000000    29.19000000    62.58000000
   H     96.32000000    28.14000000    60.19000000
   H     98.48000000    27.65000000    61.58000000
   H     97.48000000    28.09000000    62.96000000
   H     97.15000000    30.33000000    61.68000000
   H     98.09000000    29.52000000    60.43000000
   H    100.11000000    29.80000000    61.79000000
   H     99.28000000    30.03000000    63.27000000
   H     98.62000000    32.38000000    62.36000000
   H     99.32000000    31.92000000    60.92000000
   H    101.46000000    31.60000000    61.87000000
   H    100.92000000    32.99000000    62.28000000
   H    100.84000000    31.92000000    63.50000000
   N     95.40000000    25.72000000    62.05000000
   C     95.14000000    24.31000000    62.27000000
   C     93.64000000    24.09000000    62.39000000
   O     93.28000000    22.93000000    62.59000000
   C     96.00000000    23.65000000    63.34000000
   C     95.98000000    24.43000000    64.65000000
   O     94.87000000    24.54000000    65.20000000
   O     96.89000000    25.01000000    65.27000000
   H     94.93000000    26.40000000    62.63000000
   H     95.30000000    23.79000000    61.32000000
   H     97.00000000    23.76000000    62.92000000
   H     95.79000000    22.59000000    63.47000000
   N     92.81000000    25.09000000    62.11000000
   C     91.37000000    24.90000000    62.14000000
   C     90.84000000    24.39000000    63.47000000
   O     89.81000000    23.71000000    63.48000000
   H     93.06000000    26.06000000    62.25000000
   H     91.24000000    24.05000000    61.48000000
   H     90.85000000    25.80000000    61.82000000
   N     91.40000000    24.83000000    64.60000000
   C     90.98000000    24.75000000    65.98000000
   C     91.39000000    26.09000000    66.57000000
   O     92.58000000    26.35000000    66.75000000
   C     91.50000000    23.49000000    66.66000000
   C     91.01000000    23.59000000    68.10000000
   N     89.72000000    23.35000000    68.34000000
   O     91.69000000    23.81000000    69.11000000
   H     92.17000000    25.49000000    64.54000000
   H     89.90000000    24.71000000    66.13000000
   H     92.59000000    23.43000000    66.73000000
   H     91.07000000    22.58000000    66.26000000
   H     89.05000000    22.94000000    67.72000000
   H     89.42000000    23.38000000    69.31000000
   N     90.44000000    27.00000000    66.75000000
   C     90.65000000    28.44000000    66.72000000
   C     91.29000000    29.10000000    67.93000000
   O     91.71000000    30.25000000    67.85000000
   H     89.47000000    26.72000000    66.79000000
   H     89.73000000    29.02000000    66.63000000
   H     91.27000000    28.69000000    65.86000000
   N     91.61000000    28.35000000    68.99000000
   C     92.48000000    28.78000000    70.06000000
   C     93.89000000    29.21000000    69.66000000
   O     94.44000000    28.66000000    68.72000000
   C     92.63000000    27.60000000    71.02000000
   C     91.47000000    27.41000000    71.96000000
   C     91.17000000    28.43000000    72.87000000
   C     90.58000000    26.37000000    71.70000000
   C     90.05000000    28.35000000    73.71000000
   C     89.41000000    26.31000000    72.46000000
   C     89.13000000    27.34000000    73.38000000
   O     87.99000000    27.31000000    74.14000000
   H     91.43000000    27.36000000    68.92000000
   H     92.04000000    29.61000000    70.62000000
   H     93.45000000    27.77000000    71.71000000
   H     92.98000000    26.72000000    70.47000000
   H     91.89000000    29.23000000    73.00000000
   H     90.73000000    25.52000000    71.04000000
   H     89.81000000    29.09000000    74.46000000
   H     88.68000000    25.52000000    72.32000000
   H     87.38000000    26.63000000    73.84000000
   N     94.43000000    30.15000000    70.45000000
   C     95.72000000    30.80000000    70.35000000
   C     96.97000000    29.94000000    70.36000000
   O     96.92000000    28.72000000    70.24000000
   C     95.73000000    31.90000000    69.29000000
   C     94.54000000    32.84000000    69.42000000
   C     95.97000000    31.27000000    67.92000000
   C     94.77000000    34.06000000    68.53000000
   H     93.83000000    30.48000000    71.19000000
   H     95.78000000    31.38000000    71.28000000
   H     96.60000000    32.55000000    69.43000000
   H     94.42000000    33.08000000    70.47000000
   H     93.64000000    32.32000000    69.09000000
   H     95.09000000    30.80000000    67.49000000
   H     96.31000000    31.99000000    67.18000000
   H     96.79000000    30.55000000    67.97000000
   H     93.98000000    34.79000000    68.66000000
   H     95.75000000    34.53000000    68.68000000
   H     94.70000000    33.74000000    67.49000000
   N     98.13000000    30.60000000    70.45000000
   C     99.48000000    30.09000000    70.41000000
   C    100.23000000    30.15000000    71.74000000
   O    100.85000000    29.15000000    72.09000000
   C    100.30000000    30.90000000    69.41000000
   O    100.55000000    32.23000000    69.78000000
   H     98.07000000    31.58000000    70.68000000
   H     99.40000000    29.07000000    70.04000000
   H     99.69000000    30.92000000    68.50000000
   H    101.23000000    30.43000000    69.09000000
   H    101.21000000    32.57000000    69.17000000
   N    100.15000000    31.26000000    72.47000000
   C    100.85000000    31.49000000    73.72000000
   C    102.29000000    31.00000000    73.75000000
   O    102.69000000    30.07000000    74.45000000
   C    100.00000000    30.99000000    74.89000000
   H     99.61000000    32.00000000    72.05000000
   H    100.89000000    32.57000000    73.81000000
   H     99.72000000    29.94000000    74.77000000
   H    100.48000000    31.14000000    75.85000000
   H     99.09000000    31.57000000    74.98000000
   N    103.25000000    31.59000000    73.03000000
   C    103.18000000    32.70000000    72.11000000
   C    103.47000000    33.96000000    72.91000000
   O    104.48000000    34.09000000    73.60000000
   C    104.13000000    32.40000000    70.96000000
   H    104.17000000    31.23000000    73.25000000
   H    102.13000000    32.68000000    71.80000000
   H    105.13000000    32.15000000    71.33000000
   H    103.69000000    31.69000000    70.26000000
   H    104.24000000    33.30000000    70.36000000
   N    102.65000000    35.01000000    72.84000000
   C    101.49000000    35.24000000    72.00000000
   C    100.33000000    35.85000000    72.78000000
   O     99.17000000    35.50000000    72.59000000
   C    102.00000000    35.99000000    70.78000000
   C    102.61000000    37.39000000    70.94000000
   C    103.19000000    37.92000000    69.64000000
   O    102.71000000    38.94000000    69.10000000
   O    104.08000000    37.19000000    69.15000000
   H    102.98000000    35.79000000    73.39000000
   H    101.01000000    34.38000000    71.54000000
   H    101.17000000    35.99000000    70.08000000
   H    102.70000000    35.36000000    70.23000000
   H    103.45000000    37.32000000    71.63000000
   H    101.81000000    37.96000000    71.41000000
   N    100.61000000    36.85000000    73.63000000
   C     99.56000000    37.60000000    74.27000000
   H     98.66300000    36.98400000    74.33700000
   H     99.87800000    37.88900000    75.27200000
   H     99.34300000    38.49400000    73.68500000
   H    101.59000000    37.04000000    73.81000000
  Ca     95.10000000    27.01000000    66.34000000
   O     97.44000000    27.36000000    67.75000000
   H     98.30000000    26.94000000    67.81000000
   H     97.28000000    27.70000000    68.63000000
   O     96.65000000    28.66000000    65.16000000
   H     97.55000000    28.90000000    65.41000000
   H     96.29000000    29.47000000    64.79000000
   O     94.93000000    25.32000000    68.51000000
   H     94.27000000    24.74000000    68.91000000
   H     95.64000000    25.34000000    69.14000000

Ca 1.00



