%chk=loop2.apoCaM-CA-Ng.Init31.run56.water4.chk
%nprocshared=20
%mem=10GB
%nosave
#b3lyp/svp scf=(tight,noincore,xqc) Test 
#IOP(5/87=12) Density=Current Pop=(MK,readradii) iop(6/33=2) iop(6/42=6)

loop2.apoCaM-CA-Ng.Init31.run56.water4 

   -2  1 
   C    109.37000000    74.57000000     9.00000000
   C    108.18000000    74.34000000     8.06000000
   O    107.60000000    73.26000000     8.02000000
   H    110.17800000    75.05400000     8.45100000
   H    109.06200000    75.20800000     9.82800000
   H    109.71800000    73.61300000     9.38800000
   N    107.75000000    75.34000000     7.28000000
   C    108.18000000    76.72000000     7.24000000
   C    108.39000000    77.10000000     5.78000000
   O    107.56000000    76.88000000     4.90000000
   C    107.09000000    77.53000000     7.94000000
   C    105.64000000    77.29000000     7.54000000
   O    105.24000000    77.52000000     6.38000000
   O    104.87000000    76.86000000     8.42000000
   H    106.95000000    75.04000000     6.74000000
   H    109.13000000    76.87000000     7.76000000
   H    107.42000000    78.57000000     7.88000000
   H    107.23000000    77.35000000     9.00000000
   N    109.54000000    77.72000000     5.49000000
   C    110.12000000    78.20000000     4.25000000
   C    109.27000000    79.16000000     3.43000000
   O    109.78000000    80.10000000     2.82000000
   C    110.36000000    76.93000000     3.44000000
   H    110.10000000    77.78000000     6.33000000
   H    111.09000000    78.67000000     4.43000000
   H    110.96000000    77.25000000     2.59000000
   H    111.02000000    76.26000000     3.99000000
   H    109.46000000    76.46000000     3.05000000
   N    107.94000000    79.03000000     3.33000000
   C    107.10000000    79.96000000     2.61000000
   C    105.68000000    80.08000000     3.17000000
   O    105.28000000    79.19000000     3.91000000
   C    107.02000000    79.46000000     1.17000000
   C    106.62000000    78.02000000     0.91000000
   O    106.88000000    77.53000000    -0.21000000
   O    105.94000000    77.38000000     1.74000000
   H    107.54000000    78.33000000     3.94000000
   H    107.47000000    80.98000000     2.53000000
   H    108.01000000    79.63000000     0.75000000
   H    106.42000000    80.19000000     0.63000000
   N    105.06000000    81.22000000     2.86000000
   C    103.71000000    81.54000000     3.29000000
   C    102.70000000    81.01000000     2.28000000
   O    102.84000000    81.28000000     1.09000000
   H    105.59000000    81.89000000     2.32000000
   H    103.64000000    82.63000000     3.30000000
   H    103.50000000    81.04000000     4.23000000
   N    101.66000000    80.30000000     2.72000000
   C    100.67000000    79.65000000     1.88000000
   C     99.31000000    80.30000000     2.04000000
   O     98.91000000    80.67000000     3.14000000
   C    100.81000000    78.14000000     2.06000000
   C    102.23000000    77.63000000     1.87000000
   N    102.67000000    77.36000000     0.64000000
   O    103.04000000    77.58000000     2.80000000
   H    101.57000000    80.12000000     3.71000000
   H    100.93000000    79.86000000     0.84000000
   H    100.17000000    77.66000000     1.32000000
   H    100.45000000    77.82000000     3.03000000
   H    102.13000000    77.57000000    -0.19000000
   H    103.64000000    77.08000000     0.58000000
   N     98.49000000    80.35000000     0.98000000
   C     97.16000000    80.92000000     0.99000000
   C     96.25000000    80.42000000    -0.12000000
   O     96.75000000    79.94000000    -1.13000000
   H     98.80000000    79.92000000     0.12000000
   H     97.18000000    82.01000000     0.87000000
   H     96.64000000    80.77000000     1.94000000
   N     94.92000000    80.57000000    -0.09000000
   C     94.15000000    80.97000000     1.07000000
   C     94.25000000    79.95000000     2.20000000
   O     94.61000000    80.21000000     3.35000000
   C     92.71000000    81.22000000     0.63000000
   C     92.57000000    82.28000000    -0.46000000
   O     92.12000000    80.08000000     0.04000000
   H     94.43000000    80.33000000    -0.94000000
   H     94.50000000    81.95000000     1.38000000
   H     92.19000000    81.59000000     1.52000000
   H     91.19000000    80.23000000     0.22000000
   H     92.72000000    83.28000000    -0.04000000
   H     93.15000000    82.00000000    -1.33000000
   H     91.57000000    82.31000000    -0.91000000
   N     94.13000000    78.72000000     1.71000000
   C     93.99000000    77.52000000     2.52000000
   C     92.72000000    77.51000000     3.34000000
   O     92.62000000    78.15000000     4.39000000
   C     95.24000000    77.11000000     3.30000000
   C     96.52000000    77.31000000     2.50000000
   C     95.11000000    75.73000000     3.94000000
   C     96.68000000    76.64000000     1.14000000
   H     93.91000000    78.64000000     0.72000000
   H     93.77000000    76.77000000     1.75000000
   H     95.35000000    77.84000000     4.10000000
   H     97.36000000    76.96000000     3.10000000
   H     96.62000000    78.40000000     2.42000000
   H     96.03000000    75.53000000     4.48000000
   H     94.27000000    75.80000000     4.63000000
   H     94.90000000    74.99000000     3.16000000
   H     96.06000000    77.10000000     0.37000000
   H     97.73000000    76.66000000     0.83000000
   H     96.26000000    75.64000000     1.15000000
   N     91.62000000    76.82000000     3.02000000
   C     91.36000000    75.95000000     1.89000000
   C     92.15000000    74.66000000     1.97000000
   O     93.09000000    74.51000000     1.19000000
   C     89.87000000    75.65000000     1.75000000
   C     88.99000000    75.21000000     2.92000000
   O     89.42000000    75.22000000     4.09000000
   O     87.80000000    74.93000000     2.67000000
   H     90.92000000    76.77000000     3.75000000
   H     91.66000000    76.53000000     1.01000000
   H     89.77000000    74.81000000     1.06000000
   H     89.36000000    76.53000000     1.36000000
   N     91.76000000    73.79000000     2.91000000
   C     92.26000000    72.44000000     3.07000000
   C     91.29000000    71.43000000     2.47000000
   O     90.10000000    71.74000000     2.46000000
   C     92.77000000    72.14000000     4.48000000
   C     91.68000000    72.15000000     5.53000000
   C     91.58000000    73.22000000     6.43000000
   C     90.99000000    70.99000000     5.91000000
   C     90.80000000    73.22000000     7.60000000
   C     90.12000000    70.95000000     7.00000000
   C     90.10000000    72.04000000     7.87000000
   H     90.81000000    73.91000000     3.24000000
   H     93.13000000    72.32000000     2.43000000
   H     93.49000000    72.91000000     4.77000000
   H     93.12000000    71.11000000     4.52000000
   H     92.09000000    74.14000000     6.22000000
   H     91.19000000    70.09000000     5.35000000
   H     90.74000000    74.11000000     8.22000000
   H     89.67000000    69.98000000     7.17000000
   H     89.46000000    72.01000000     8.74000000
   N     91.67000000    70.23000000     2.02000000
   C     92.98000000    69.63000000     1.85000000
   C     93.85000000    70.28000000     0.79000000
   O     93.46000000    71.27000000     0.17000000
   C     92.70000000    68.16000000     1.52000000
   C     91.29000000    67.88000000     2.05000000
   C     90.67000000    69.23000000     1.73000000
   H     93.37000000    69.67000000     2.86000000
   H     92.79000000    67.92000000     0.47000000
   H     93.40000000    67.57000000     2.11000000
   H     90.85000000    67.10000000     1.44000000
   H     91.26000000    67.64000000     3.11000000
   H     90.44000000    69.24000000     0.67000000
   H     89.70000000    69.42000000     2.21000000
   N     95.11000000    69.83000000     0.73000000
   C     96.21000000    70.38000000    -0.03000000
   C     97.50000000    70.12000000     0.72000000
   O     98.48000000    69.83000000     0.03000000
   C     96.23000000    69.85000000    -1.47000000
   C     95.06000000    70.26000000    -2.37000000
   C     95.14000000    71.63000000    -3.03000000
   O     95.08000000    71.76000000    -4.27000000
   O     95.34000000    72.61000000    -2.28000000
   H     95.27000000    69.13000000     1.44000000
   H     96.08000000    71.46000000    -0.12000000
   H     96.35000000    68.77000000    -1.52000000
   H     97.08000000    70.36000000    -1.91000000
   H     94.08000000    70.11000000    -1.92000000
   H     94.95000000    69.57000000    -3.20000000
   N     97.68000000    70.15000000     2.04000000
   C     96.79000000    70.45000000     3.14000000
   H     95.82800000    69.96700000     2.97000000
   H     97.22300000    70.08000000     4.06900000
   H     96.64800000    71.52800000     3.20900000
   H     98.64000000    70.13000000     2.34000000
  Ca    105.02800000    76.45000000     4.00000000
   O    102.71800000    76.17000000     5.20000000
   H    102.88800000    75.76000000     6.05000000
   H    101.80800000    76.44000000     5.25000000
   O    103.70800000    74.26000000     2.94000000
   H    103.71800000    73.38000000     3.31000000
   H    103.41800000    74.15000000     2.04000000
   O    105.38800000    74.50000000     5.67000000
   H    105.33800000    73.58000000     5.42000000
   H    105.05800000    74.51000000     6.57000000
   O    106.70800000    74.70000000     2.66000000
   H    107.01800000    75.15000000     1.87000000
   H    106.73800000    73.77000000     2.43000000

Ca 1.00



