%chk=loop3.apoCaM-CA-Ng.Init293.run13.water5.chk
%nprocshared=20
%mem=10GB
%nosave
#b3lyp/svp scf=(tight,noincore,xqc) Test 
#IOP(5/87=12) Density=Current Pop=(MK,readradii) iop(6/33=2) iop(6/42=6)

loop3.apoCaM-CA-Ng.Init293.run13.water5 

   0  1 
   C     64.37000000    22.54000000    21.20000000
   C     65.65000000    23.05000000    20.56000000
   O     65.75000000    24.22000000    20.22000000
   H     63.56400000    22.56300000    20.46700000
   H     64.51800000    21.51700000    21.54500000
   H     64.10800000    23.17500000    22.04600000
   N     66.58000000    22.13000000    20.29000000
   C     67.62000000    22.31000000    19.30000000
   C     67.23000000    22.69000000    17.88000000
   O     67.60000000    21.94000000    16.97000000
   C     68.68000000    23.22000000    19.91000000
   C     70.06000000    23.11000000    19.28000000
   O     70.41000000    23.89000000    18.36000000
   O     70.79000000    22.17000000    19.66000000
   H     66.53000000    21.23000000    20.75000000
   H     68.01000000    21.29000000    19.25000000
   H     68.91000000    22.97000000    20.94000000
   H     68.37000000    24.26000000    19.80000000
   N     66.48000000    23.77000000    17.69000000
   C     65.92000000    24.17000000    16.41000000
   C     66.23000000    25.61000000    16.06000000
   O     66.41000000    25.92000000    14.89000000
   C     64.44000000    23.81000000    16.33000000
   C     64.21000000    22.32000000    16.51000000
   C     62.76000000    21.84000000    16.47000000
   C     62.68000000    20.33000000    16.31000000
   N     61.41000000    19.89000000    15.71000000
   H     66.18000000    24.24000000    18.54000000
   H     66.46000000    23.59000000    15.66000000
   H     63.99000000    24.18000000    15.41000000
   H     63.89000000    24.43000000    17.05000000
   H     64.64000000    22.00000000    17.46000000
   H     64.82000000    21.81000000    15.76000000
   H     62.30000000    22.31000000    15.60000000
   H     62.25000000    22.19000000    17.38000000
   H     62.83000000    19.86000000    17.28000000
   H     63.50000000    19.99000000    15.67000000
   H     60.59000000    20.13000000    16.26000000
   H     61.23000000    20.27000000    14.79000000
   H     61.33000000    18.89000000    15.57000000
   N     66.18000000    26.52000000    17.04000000
   C     66.24000000    27.96000000    16.92000000
   C     66.99000000    28.51000000    18.13000000
   O     67.20000000    27.78000000    19.10000000
   C     64.85000000    28.56000000    16.73000000
   C     64.77000000    30.06000000    16.48000000
   O     63.67000000    30.64000000    16.63000000
   O     65.75000000    30.74000000    16.10000000
   H     66.18000000    26.12000000    17.97000000
   H     66.74000000    28.35000000    16.03000000
   H     64.34000000    28.44000000    17.69000000
   H     64.26000000    27.98000000    16.03000000
   N     67.41000000    29.77000000    18.16000000
   C     67.99000000    30.54000000    19.24000000
   C     67.00000000    31.62000000    19.66000000
   O     66.24000000    32.09000000    18.81000000
   H     67.27000000    30.28000000    17.29000000
   H     68.91000000    31.00000000    18.89000000
   H     68.07000000    29.90000000    20.12000000
   N     66.98000000    31.94000000    20.96000000
   C     66.10000000    32.91000000    21.58000000
   C     66.91000000    34.08000000    22.10000000
   O     66.34000000    35.15000000    22.29000000
   C     65.46000000    32.11000000    22.71000000
   C     64.50000000    30.99000000    22.30000000
   N     63.69000000    31.08000000    21.25000000
   O     64.33000000    29.95000000    22.92000000
   H     67.55000000    31.39000000    21.58000000
   H     65.35000000    33.18000000    20.84000000
   H     64.94000000    32.79000000    23.38000000
   H     66.18000000    31.67000000    23.40000000
   H     63.64000000    31.99000000    20.80000000
   H     62.95000000    30.41000000    21.13000000
   N     68.16000000    33.92000000    22.54000000
   C     68.94000000    35.04000000    23.03000000
   C     68.41000000    35.76000000    24.26000000
   O     67.91000000    35.03000000    25.11000000
   H     68.47000000    32.97000000    22.66000000
   H     69.12000000    35.71000000    22.19000000
   H     69.95000000    34.65000000    23.18000000
   N     68.57000000    37.09000000    24.35000000
   C     67.94000000    37.96000000    25.32000000
   C     66.43000000    37.86000000    25.49000000
   O     65.92000000    38.44000000    26.45000000
   C     68.55000000    37.75000000    26.70000000
   C     70.03000000    38.04000000    26.73000000
   C     71.04000000    37.08000000    26.53000000
   C     70.40000000    39.37000000    26.95000000
   C     72.39000000    37.47000000    26.57000000
   C     71.74000000    39.76000000    26.87000000
   C     72.78000000    38.81000000    26.69000000
   O     74.10000000    39.13000000    26.71000000
   H     69.15000000    37.51000000    23.64000000
   H     68.25000000    38.97000000    25.02000000
   H     68.33000000    36.73000000    27.02000000
   H     68.08000000    38.42000000    27.42000000
   H     70.81000000    36.05000000    26.30000000
   H     69.69000000    40.14000000    27.19000000
   H     73.12000000    36.68000000    26.46000000
   H     72.00000000    40.80000000    27.01000000
   H     74.12000000    40.09000000    26.77000000
   N     65.76000000    37.21000000    24.54000000
   C     64.33000000    36.98000000    24.39000000
   C     63.55000000    38.25000000    24.08000000
   O     62.89000000    38.31000000    23.04000000
   C     63.87000000    36.26000000    25.65000000
   C     64.69000000    35.07000000    26.14000000
   C     62.49000000    35.71000000    25.35000000
   C     64.26000000    34.37000000    27.43000000
   H     66.33000000    36.83000000    23.80000000
   H     64.21000000    36.35000000    23.51000000
   H     63.89000000    36.98000000    26.48000000
   H     65.67000000    35.54000000    26.26000000
   H     64.94000000    34.24000000    25.48000000
   H     61.87000000    36.55000000    25.03000000
   H     62.56000000    34.97000000    24.55000000
   H     61.88000000    35.29000000    26.15000000
   H     63.29000000    33.94000000    27.22000000
   H     65.07000000    33.70000000    27.72000000
   H     64.10000000    35.13000000    28.19000000
   N     63.58000000    39.28000000    24.93000000
   C     62.92000000    40.55000000    24.72000000
   C     61.44000000    40.57000000    24.39000000
   O     60.99000000    41.53000000    23.76000000
   C     63.19000000    41.32000000    26.01000000
   O     64.58000000    41.46000000    26.21000000
   H     64.29000000    39.31000000    25.65000000
   H     63.45000000    41.04000000    23.90000000
   H     62.73000000    40.86000000    26.88000000
   H     62.72000000    42.30000000    25.97000000
   H     64.66000000    41.79000000    27.11000000
   N     60.72000000    39.52000000    24.79000000
   C     59.33000000    39.30000000    24.43000000
   C     59.05000000    39.26000000    22.93000000
   O     57.99000000    39.56000000    22.39000000
   C     58.41000000    40.25000000    25.20000000
   H     61.24000000    38.77000000    25.23000000
   H     59.07000000    38.28000000    24.73000000
   H     58.45000000    41.23000000    24.73000000
   H     57.41000000    39.82000000    25.11000000
   H     58.76000000    40.36000000    26.22000000
   N     60.04000000    38.91000000    22.11000000
   C     60.07000000    38.65000000    20.69000000
   C     59.60000000    37.25000000    20.30000000
   O     59.68000000    36.30000000    21.07000000
   C     61.46000000    38.87000000    20.12000000
   H     60.89000000    38.71000000    22.63000000
   H     59.33000000    39.30000000    20.22000000
   H     61.57000000    38.73000000    19.05000000
   H     61.66000000    39.93000000    20.29000000
   H     62.20000000    38.26000000    20.64000000
   N     59.18000000    37.14000000    19.04000000
   C     58.78000000    35.90000000    18.39000000
   C     57.75000000    35.01000000    19.07000000
   O     57.71000000    33.81000000    18.80000000
   C     59.89000000    35.01000000    17.85000000
   C     60.90000000    35.75000000    16.99000000
   C     61.95000000    34.80000000    16.43000000
   O     63.16000000    35.03000000    16.57000000
   O     61.53000000    33.82000000    15.77000000
   H     59.40000000    37.91000000    18.42000000
   H     58.27000000    36.23000000    17.49000000
   H     59.52000000    34.11000000    17.35000000
   H     60.32000000    34.59000000    18.76000000
   H     61.42000000    36.60000000    17.44000000
   H     60.27000000    36.05000000    16.15000000
   N     56.94000000    35.51000000    20.00000000
   C     56.23000000    34.64000000    20.91000000
   H     55.24200000    34.41900000    20.50500000
   H     56.78700000    33.71100000    21.03500000
   H     56.12400000    35.13300000    21.87600000
   H     56.87000000    36.51000000    20.17000000
  Ca     64.82000000    33.16000000    16.75000000
   O     63.06000000    32.54000000    18.83000000
   H     62.56000000    33.19000000    19.32000000
   H     62.40000000    31.96000000    18.46000000
   O     64.40000000    32.71000000    14.15000000
   H     63.95000000    33.41000000    13.67000000
   H     64.31000000    31.94000000    13.59000000
   O     65.98000000    35.05000000    18.29000000
   H     66.15000000    35.88000000    18.74000000
   H     66.83000000    34.61000000    18.27000000
   O     65.82000000    35.31000000    15.10000000
   H     65.76000000    36.15000000    15.55000000
   H     66.73000000    35.28000000    14.78000000
   O     67.60000000    33.30000000    16.25000000
   H     68.25000000    32.62000000    16.39000000
   H     68.06000000    33.98000000    15.76000000

Ca 1.00



