%chk=loop1.holoCaM.run25.water2.chk
%nprocshared=20
%mem=10GB
%nosave
#b3lyp/svp scf=(tight,noincore,xqc) Test 
#IOP(5/87=12) Density=Current Pop=(MK,readradii) iop(6/33=2) iop(6/42=6)

loop1.holoCaM.run25.water2 

   0  1 
   C     59.02000000    74.72000000     9.81000000
   C     57.52000000    74.56000000     9.66000000
   O     57.06000000    74.72000000     8.54000000
   H     59.47900000    74.77800000     8.82300000
   H     59.23500000    75.63300000    10.36500000
   H     59.42500000    73.86300000    10.34800000
   N     56.73000000    74.42000000    10.73000000
   C     55.36000000    74.89000000    10.79000000
   C     55.30000000    76.40000000    10.62000000
   O     55.57000000    77.25000000    11.47000000
   C     54.76000000    74.53000000    12.14000000
   C     53.28000000    74.84000000    12.29000000
   O     52.79000000    74.73000000    13.44000000
   O     52.56000000    74.90000000    11.27000000
   H     57.06000000    74.18000000    11.65000000
   H     54.81000000    74.37000000    10.00000000
   H     55.24000000    75.11000000    12.93000000
   H     54.82000000    73.47000000    12.42000000
   N     54.82000000    76.74000000     9.42000000
   C     54.82000000    78.05000000     8.80000000
   C     53.55000000    78.83000000     9.11000000
   O     53.62000000    80.06000000     9.04000000
   C     55.09000000    77.85000000     7.31000000
   C     56.51000000    78.12000000     6.82000000
   C     56.73000000    77.83000000     5.34000000
   C     58.13000000    78.14000000     4.83000000
   N     59.08000000    77.01000000     4.86000000
   H     54.53000000    75.99000000     8.81000000
   H     55.61000000    78.62000000     9.27000000
   H     54.49000000    78.57000000     6.75000000
   H     54.99000000    76.80000000     7.05000000
   H     57.25000000    77.50000000     7.32000000
   H     56.80000000    79.16000000     7.01000000
   H     55.98000000    78.43000000     4.82000000
   H     56.56000000    76.76000000     5.19000000
   H     58.61000000    79.02000000     5.26000000
   H     58.04000000    78.53000000     3.81000000
   H     58.82000000    76.30000000     4.19000000
   H     60.02000000    77.29000000     4.64000000
   H     59.12000000    76.60000000     5.78000000
   N     52.44000000    78.23000000     9.54000000
   C     51.26000000    78.93000000    10.00000000
   C     51.03000000    78.71000000    11.49000000
   O     50.28000000    79.47000000    12.10000000
   C     50.01000000    78.55000000     9.21000000
   C     49.74000000    77.08000000     8.90000000
   O     48.94000000    76.87000000     7.97000000
   O     50.30000000    76.21000000     9.61000000
   H     52.44000000    77.22000000     9.52000000
   H     51.37000000    80.00000000     9.83000000
   H     50.09000000    79.00000000     8.22000000
   H     49.11000000    79.03000000     9.59000000
   N     51.64000000    77.68000000    12.08000000
   C     51.67000000    77.46000000    13.52000000
   C     50.51000000    76.71000000    14.15000000
   O     50.42000000    76.77000000    15.38000000
   H     52.07000000    76.98000000    11.50000000
   H     51.64000000    78.48000000    13.90000000
   H     52.60000000    77.03000000    13.89000000
   N     49.79000000    75.86000000    13.41000000
   C     48.77000000    74.93000000    13.85000000
   C     49.27000000    73.75000000    14.67000000
   O     48.55000000    72.84000000    15.07000000
   C     47.99000000    74.53000000    12.61000000
   C     48.84000000    73.83000000    11.55000000
   O     48.41000000    73.81000000    10.38000000
   O     49.94000000    73.31000000    11.83000000
   H     50.05000000    75.72000000    12.45000000
   H     48.05000000    75.53000000    14.40000000
   H     47.55000000    75.45000000    12.23000000
   H     47.18000000    73.88000000    12.96000000
   N     50.58000000    73.67000000    14.94000000
   C     51.30000000    72.65000000    15.68000000
   C     51.57000000    71.39000000    14.87000000
   O     51.77000000    70.32000000    15.44000000
   H     51.15000000    74.31000000    14.42000000
   H     50.62000000    72.33000000    16.46000000
   H     52.31000000    72.83000000    16.04000000
   N     51.61000000    71.47000000    13.53000000
   C     51.90000000    70.38000000    12.63000000
   C     52.57000000    70.83000000    11.33000000
   O     52.44000000    71.98000000    10.94000000
   C     50.62000000    69.67000000    12.19000000
   C     49.83000000    68.82000000    13.18000000
   O     49.72000000    70.55000000    11.56000000
   H     51.33000000    72.38000000    13.20000000
   H     52.52000000    69.67000000    13.17000000
   H     50.93000000    68.92000000    11.47000000
   H     49.89000000    71.40000000    11.98000000
   H     50.55000000    68.14000000    13.63000000
   H     49.47000000    69.45000000    13.99000000
   H     48.98000000    68.35000000    12.69000000
   N     53.23000000    69.92000000    10.61000000
   C     53.67000000    70.01000000     9.23000000
   C     52.74000000    69.32000000     8.23000000
   O     52.44000000    68.15000000     8.45000000
   C     55.17000000    69.75000000     9.20000000
   C     56.06000000    70.62000000    10.09000000
   C     55.90000000    69.59000000     7.87000000
   C     57.43000000    69.97000000    10.23000000
   H     53.30000000    68.99000000    10.98000000
   H     53.65000000    71.09000000     9.06000000
   H     55.25000000    68.78000000     9.68000000
   H     55.57000000    70.72000000    11.05000000
   H     56.21000000    71.62000000     9.68000000
   H     55.18000000    69.45000000     7.06000000
   H     56.53000000    70.40000000     7.48000000
   H     56.44000000    68.65000000     7.84000000
   H     57.39000000    69.00000000    10.72000000
   H     58.09000000    69.93000000     9.36000000
   H     58.01000000    70.60000000    10.91000000
   N     52.43000000    69.99000000     7.12000000
   C     51.85000000    69.38000000     5.94000000
   C     52.82000000    69.40000000     4.77000000
   O     53.88000000    69.99000000     4.93000000
   C     50.45000000    69.88000000     5.58000000
   C     50.48000000    71.36000000     5.21000000
   O     49.88000000    69.06000000     4.59000000
   H     52.73000000    70.94000000     7.02000000
   H     51.64000000    68.33000000     6.15000000
   H     49.76000000    69.79000000     6.43000000
   H     48.95000000    68.94000000     4.83000000
   H     51.43000000    71.63000000     4.75000000
   H     49.77000000    71.76000000     4.49000000
   H     50.35000000    71.83000000     6.19000000
   N     52.50000000    68.67000000     3.69000000
   C     53.33000000    68.64000000     2.50000000
   C     53.84000000    69.99000000     2.04000000
   O     55.03000000    70.05000000     1.76000000
   C     52.59000000    67.99000000     1.33000000
   C     52.17000000    66.52000000     1.36000000
   O     51.35000000    68.61000000     1.10000000
   H     51.60000000    68.22000000     3.69000000
   H     54.19000000    68.01000000     2.73000000
   H     53.18000000    68.09000000     0.42000000
   H     50.89000000    68.03000000     0.50000000
   H     51.35000000    66.23000000     2.02000000
   H     52.02000000    66.20000000     0.33000000
   H     53.11000000    66.08000000     1.67000000
   N     53.00000000    71.03000000     2.14000000
   C     53.33000000    72.38000000     1.75000000
   C     54.50000000    73.05000000     2.46000000
   O     55.12000000    73.96000000     1.92000000
   C     52.10000000    73.28000000     1.84000000
   C     50.81000000    72.74000000     1.23000000
   C     51.00000000    72.62000000    -0.28000000
   C     49.64000000    72.14000000    -0.78000000
   N     49.56000000    71.99000000    -2.24000000
   H     52.08000000    70.83000000     2.51000000
   H     53.56000000    72.36000000     0.68000000
   H     52.27000000    74.24000000     1.37000000
   H     51.99000000    73.54000000     2.90000000
   H     50.07000000    73.47000000     1.57000000
   H     50.54000000    71.73000000     1.54000000
   H     51.78000000    71.89000000    -0.50000000
   H     51.07000000    73.60000000    -0.75000000
   H     48.92000000    72.89000000    -0.45000000
   H     49.44000000    71.19000000    -0.28000000
   H     49.69000000    72.87000000    -2.72000000
   H     50.30000000    71.37000000    -2.56000000
   H     48.62000000    71.70000000    -2.43000000
   N     54.69000000    72.62000000     3.71000000
   C     55.69000000    72.95000000     4.71000000
   C     56.89000000    72.01000000     4.65000000
   O     58.00000000    72.51000000     4.79000000
   C     55.05000000    72.89000000     6.10000000
   C     54.03000000    74.01000000     6.27000000
   C     53.18000000    73.86000000     7.51000000
   O     52.59000000    72.79000000     7.78000000
   O     53.21000000    74.81000000     8.32000000
   H     54.02000000    71.92000000     4.00000000
   H     55.95000000    74.00000000     4.60000000
   H     55.83000000    73.09000000     6.84000000
   H     54.69000000    71.88000000     6.25000000
   H     53.30000000    73.91000000     5.46000000
   H     54.48000000    75.01000000     6.23000000
   N     56.71000000    70.70000000     4.52000000
   C     57.74000000    69.68000000     4.56000000
   H     58.62300000    70.07600000     5.06100000
   H     57.37100000    68.81200000     5.10600000
   H     58.00100000    69.38600000     3.54300000
   H     55.76000000    70.35000000     4.46000000
  Ca     51.14000000    73.80000000     9.55000000
   O     50.02000000    74.67000000     7.01000000
   H     49.68000000    74.50000000     6.13000000
   H     49.50000000    75.40000000     7.34000000
   O     49.59000000    71.77000000     8.55000000
   H     48.97000000    71.34000000     9.13000000
   H     49.09000000    71.93000000     7.74000000

Ca 1.00



