%chk=loop1.apoCaM-CA-Ng.Init293.run61.water5.chk
%nprocshared=20
%mem=10GB
%nosave
#b3lyp/svp scf=(tight,noincore,xqc) Test 
#IOP(5/87=12) Density=Current Pop=(MK,readradii) iop(6/33=2) iop(6/42=6)

loop1.apoCaM-CA-Ng.Init293.run61.water5 

   0  1 
   C     81.30000000    75.33000000    60.16000000
   C     82.71000000    75.22000000    59.60000000
   O     83.18000000    76.05000000    58.83000000
   H     80.60500000    74.81200000    59.49800000
   H     81.26500000    74.87500000    61.15000000
   H     81.01800000    76.38000000    60.23200000
   N     83.36000000    74.07000000    59.78000000
   C     84.71000000    73.78000000    59.34000000
   C     84.85000000    73.43000000    57.87000000
   O     85.94000000    73.50000000    57.31000000
   C     85.37000000    72.76000000    60.27000000
   C     84.53000000    71.50000000    60.29000000
   O     85.18000000    70.46000000    60.03000000
   O     83.28000000    71.42000000    60.38000000
   H     82.86000000    73.37000000    60.32000000
   H     85.24000000    74.72000000    59.50000000
   H     85.44000000    73.18000000    61.27000000
   H     86.40000000    72.59000000    59.98000000
   N     83.76000000    73.08000000    57.18000000
   C     83.84000000    72.55000000    55.84000000
   C     83.83000000    73.60000000    54.74000000
   O     82.85000000    74.33000000    54.58000000
   C     82.68000000    71.60000000    55.59000000
   C     82.33000000    70.54000000    56.63000000
   C     83.50000000    69.63000000    57.02000000
   C     83.04000000    68.41000000    57.81000000
   N     82.79000000    68.77000000    59.22000000
   H     82.88000000    73.22000000    57.66000000
   H     84.74000000    71.95000000    55.67000000
   H     82.82000000    70.96000000    54.71000000
   H     81.70000000    72.07000000    55.45000000
   H     81.52000000    69.86000000    56.39000000
   H     82.03000000    70.95000000    57.60000000
   H     84.24000000    70.28000000    57.49000000
   H     83.93000000    69.26000000    56.09000000
   H     83.77000000    67.61000000    57.71000000
   H     82.06000000    68.13000000    57.43000000
   H     82.04000000    69.42000000    59.40000000
   H     82.82000000    67.91000000    59.76000000
   H     83.54000000    69.36000000    59.54000000
   N     84.70000000    73.76000000    53.74000000
   C     85.98000000    73.11000000    53.55000000
   C     86.90000000    73.90000000    52.63000000
   O     86.75000000    73.73000000    51.42000000
   C     85.82000000    71.69000000    53.03000000
   C     87.09000000    70.94000000    52.64000000
   O     87.29000000    70.39000000    51.53000000
   O     87.97000000    70.93000000    53.52000000
   H     84.47000000    74.42000000    53.01000000
   H     86.40000000    72.99000000    54.56000000
   H     85.21000000    71.71000000    52.12000000
   H     85.21000000    71.13000000    53.74000000
   N     87.71000000    74.82000000    53.15000000
   C     87.90000000    75.18000000    54.54000000
   C     88.03000000    76.69000000    54.75000000
   O     88.71000000    77.34000000    53.96000000
   H     88.34000000    75.25000000    52.49000000
   H     88.80000000    74.73000000    54.97000000
   H     87.10000000    74.87000000    55.20000000
   N     87.56000000    77.30000000    55.83000000
   C     86.66000000    76.86000000    56.88000000
   C     86.59000000    77.73000000    58.12000000
   O     87.29000000    78.73000000    58.25000000
   C     85.29000000    76.61000000    56.25000000
   C     84.56000000    77.83000000    55.72000000
   O     83.84000000    77.61000000    54.73000000
   O     84.58000000    78.89000000    56.40000000
   H     88.00000000    78.21000000    55.95000000
   H     87.07000000    75.90000000    57.21000000
   H     84.76000000    76.09000000    57.05000000
   H     85.36000000    75.86000000    55.46000000
   N     85.75000000    77.30000000    59.06000000
   C     85.40000000    78.07000000    60.23000000
   C     84.17000000    78.96000000    60.14000000
   O     83.52000000    79.28000000    61.13000000
   H     85.25000000    76.43000000    58.89000000
   H     86.21000000    78.75000000    60.53000000
   H     85.19000000    77.41000000    61.07000000
   N     84.12000000    79.61000000    58.97000000
   C     83.35000000    80.83000000    58.82000000
   C     81.95000000    80.45000000    58.38000000
   O     81.71000000    79.41000000    57.78000000
   C     84.07000000    81.80000000    57.90000000
   C     83.70000000    83.28000000    57.90000000
   O     83.77000000    81.39000000    56.58000000
   H     84.58000000    79.13000000    58.21000000
   H     83.25000000    81.31000000    59.80000000
   H     85.15000000    81.80000000    58.06000000
   H     84.13000000    80.50000000    56.56000000
   H     84.15000000    83.75000000    57.03000000
   H     82.63000000    83.24000000    57.70000000
   H     83.99000000    83.85000000    58.78000000
   N     80.96000000    81.34000000    58.55000000
   C     79.55000000    81.07000000    58.34000000
   C     78.99000000    82.39000000    57.84000000
   O     79.04000000    83.45000000    58.46000000
   C     78.86000000    80.60000000    59.62000000
   C     77.37000000    80.30000000    59.47000000
   C     79.07000000    81.52000000    60.82000000
   C     77.11000000    79.16000000    58.49000000
   H     81.17000000    82.18000000    59.06000000
   H     79.51000000    80.24000000    57.63000000
   H     79.35000000    79.66000000    59.89000000
   H     76.81000000    81.15000000    59.08000000
   H     76.91000000    80.06000000    60.43000000
   H     80.13000000    81.72000000    61.01000000
   H     78.59000000    82.49000000    60.71000000
   H     78.66000000    81.11000000    61.74000000
   H     76.05000000    78.96000000    58.33000000
   H     77.59000000    79.51000000    57.58000000
   H     77.59000000    78.26000000    58.89000000
   N     78.33000000    82.38000000    56.68000000
   C     77.83000000    83.58000000    56.04000000
   C     76.53000000    83.25000000    55.33000000
   O     75.67000000    84.13000000    55.23000000
   C     78.86000000    84.26000000    55.14000000
   C     78.46000000    85.66000000    54.68000000
   O     79.39000000    83.44000000    54.12000000
   H     78.44000000    81.49000000    56.21000000
   H     77.52000000    84.36000000    56.73000000
   H     79.65000000    84.54000000    55.83000000
   H     80.31000000    83.18000000    54.25000000
   H     77.72000000    85.44000000    53.90000000
   H     77.98000000    86.24000000    55.47000000
   H     79.31000000    86.16000000    54.23000000
   N     76.36000000    81.97000000    54.99000000
   C     75.37000000    81.27000000    54.20000000
   C     75.41000000    81.69000000    52.74000000
   O     75.97000000    82.74000000    52.43000000
   C     74.00000000    81.40000000    54.86000000
   C     73.92000000    81.33000000    56.39000000
   O     73.27000000    80.30000000    54.39000000
   H     77.26000000    81.51000000    55.06000000
   H     75.58000000    80.20000000    54.25000000
   H     73.42000000    82.27000000    54.57000000
   H     72.67000000    80.00000000    55.08000000
   H     74.13000000    82.35000000    56.70000000
   H     72.89000000    81.07000000    56.65000000
   H     74.62000000    80.66000000    56.88000000
   N     74.88000000    80.81000000    51.89000000
   C     74.54000000    80.96000000    50.49000000
   C     75.21000000    80.09000000    49.44000000
   O     75.27000000    80.49000000    48.27000000
   C     73.02000000    81.04000000    50.40000000
   C     72.27000000    82.28000000    50.88000000
   C     72.92000000    83.58000000    50.43000000
   C     72.02000000    84.82000000    50.41000000
   N     71.49000000    85.16000000    51.74000000
   H     74.42000000    80.04000000    52.36000000
   H     74.86000000    81.93000000    50.12000000
   H     72.65000000    80.20000000    51.00000000
   H     72.72000000    80.93000000    49.35000000
   H     72.36000000    82.22000000    51.96000000
   H     71.25000000    82.24000000    50.50000000
   H     73.25000000    83.48000000    49.40000000
   H     73.72000000    83.89000000    51.10000000
   H     71.26000000    84.60000000    49.66000000
   H     72.58000000    85.66000000    50.03000000
   H     72.25000000    85.47000000    52.34000000
   H     70.77000000    85.85000000    51.59000000
   H     70.96000000    84.39000000    52.12000000
   N     75.71000000    78.88000000    49.70000000
   C     75.70000000    78.00000000    50.85000000
   C     74.36000000    77.89000000    51.56000000
   O     74.26000000    78.16000000    52.76000000
   C     76.98000000    78.25000000    51.64000000
   C     77.24000000    77.25000000    52.76000000
   C     78.72000000    77.11000000    53.11000000
   O     79.15000000    77.62000000    54.17000000
   O     79.51000000    76.42000000    52.43000000
   H     76.00000000    78.43000000    48.84000000
   H     75.76000000    77.03000000    50.36000000
   H     77.01000000    79.26000000    52.07000000
   H     77.77000000    78.14000000    50.89000000
   H     76.79000000    76.32000000    52.41000000
   H     76.73000000    77.57000000    53.67000000
   N     73.28000000    77.41000000    50.93000000
   C     71.93000000    77.25000000    51.44000000
   H     71.24300000    77.10200000    50.60700000
   H     71.89100000    76.38400000    52.10100000
   H     71.64200000    78.14400000    51.99400000
   H     73.48000000    77.29000000    49.95000000
  Ca     81.60000000    76.81000000    53.99000000
   O     82.09000000    78.66000000    52.02000000
   H     82.33000000    79.58000000    52.05000000
   H     81.76000000    78.52000000    51.14000000
   O     81.62000000    77.08000000    56.62000000
   H     81.58000000    77.89000000    57.12000000
   H     81.82000000    76.41000000    57.27000000
   O     80.09000000    74.66000000    54.93000000
   H     80.50000000    74.05000000    55.54000000
   H     79.17000000    74.42000000    54.92000000
   O     82.50000000    75.40000000    51.67000000
   H     82.42000000    74.87000000    50.88000000
   H     83.40000000    75.73000000    51.65000000
   O     81.58000000    79.45000000    55.07000000
   H     82.01000000    79.50000000    55.92000000
   H     80.75000000    79.90000000    55.18000000

Ca 1.00



