%chk=loop1.apoCaM-CA-Ng.Init293.run59.water5.chk
%nprocshared=20
%mem=10GB
%nosave
#b3lyp/svp scf=(tight,noincore,xqc) Test 
#IOP(5/87=12) Density=Current Pop=(MK,readradii) iop(6/33=2) iop(6/42=6)

loop1.apoCaM-CA-Ng.Init293.run59.water5 

   0  1 
   C     79.98000000    80.44000000    76.54000000
   C     81.36000000    80.84000000    76.04000000
   O     81.55000000    81.85000000    75.37000000
   H     79.25700000    80.54100000    75.73000000
   H     80.00200000    79.40400000    76.87900000
   H     79.69100000    81.08800000    77.36800000
   N     82.35000000    79.99000000    76.31000000
   C     83.74000000    80.26000000    75.98000000
   C     84.06000000    80.12000000    74.50000000
   O     85.17000000    80.49000000    74.12000000
   C     84.67000000    79.48000000    76.91000000
   C     84.19000000    78.07000000    77.24000000
   O     83.35000000    77.90000000    78.14000000
   O     84.59000000    77.15000000    76.48000000
   H     82.20000000    79.17000000    76.89000000
   H     83.99000000    81.28000000    76.26000000
   H     84.82000000    80.02000000    77.84000000
   H     85.67000000    79.42000000    76.48000000
   N     83.16000000    79.68000000    73.61000000
   C     83.52000000    79.41000000    72.24000000
   C     83.41000000    80.65000000    71.36000000
   O     82.30000000    81.15000000    71.20000000
   C     82.76000000    78.15000000    71.82000000
   C     82.84000000    76.88000000    72.67000000
   C     84.25000000    76.34000000    72.87000000
   C     84.39000000    75.02000000    73.63000000
   N     83.99000000    74.93000000    75.04000000
   H     82.18000000    79.54000000    73.81000000
   H     84.58000000    79.16000000    72.29000000
   H     83.13000000    77.87000000    70.83000000
   H     81.70000000    78.33000000    71.65000000
   H     82.18000000    76.12000000    72.26000000
   H     82.38000000    76.97000000    73.66000000
   H     84.97000000    77.11000000    73.12000000
   H     84.50000000    76.07000000    71.84000000
   H     85.39000000    74.60000000    73.55000000
   H     83.68000000    74.38000000    73.10000000
   H     84.16000000    75.79000000    75.55000000
   H     82.98000000    74.89000000    75.00000000
   H     84.28000000    74.09000000    75.51000000
   N     84.48000000    81.09000000    70.70000000
   C     85.89000000    80.78000000    70.82000000
   C     86.69000000    81.92000000    70.21000000
   O     86.88000000    81.93000000    68.99000000
   C     86.15000000    79.47000000    70.07000000
   C     87.59000000    79.08000000    70.37000000
   O     88.27000000    78.56000000    69.46000000
   O     88.12000000    79.16000000    71.50000000
   H     84.23000000    81.79000000    70.02000000
   H     86.22000000    80.58000000    71.84000000
   H     86.01000000    79.45000000    68.99000000
   H     85.58000000    78.65000000    70.51000000
   N     87.11000000    82.93000000    70.98000000
   C     86.97000000    83.18000000    72.40000000
   C     86.66000000    84.67000000    72.56000000
   O     87.54000000    85.42000000    72.15000000
   H     87.61000000    83.68000000    70.51000000
   H     87.95000000    82.95000000    72.80000000
   H     86.24000000    82.52000000    72.87000000
   N     85.58000000    85.06000000    73.24000000
   C     84.61000000    84.22000000    73.91000000
   C     84.14000000    84.82000000    75.22000000
   O     84.65000000    85.86000000    75.64000000
   C     83.49000000    83.77000000    72.98000000
   C     82.67000000    84.91000000    72.39000000
   O     81.85000000    84.75000000    71.46000000
   O     82.81000000    86.07000000    72.84000000
   H     85.48000000    86.06000000    73.40000000
   H     85.07000000    83.30000000    74.27000000
   H     82.88000000    83.06000000    73.53000000
   H     83.96000000    83.25000000    72.14000000
   N     83.24000000    84.16000000    75.94000000
   C     82.62000000    84.56000000    77.19000000
   C     81.37000000    85.40000000    76.97000000
   O     80.58000000    85.53000000    77.90000000
   H     82.85000000    83.33000000    75.53000000
   H     83.39000000    85.18000000    77.66000000
   H     82.32000000    83.73000000    77.83000000
   N     81.11000000    85.82000000    75.73000000
   C     79.96000000    86.63000000    75.39000000
   C     78.79000000    85.72000000    75.05000000
   O     78.99000000    84.60000000    74.57000000
   C     80.26000000    87.65000000    74.30000000
   C     79.29000000    88.83000000    74.25000000
   O     80.37000000    87.10000000    73.01000000
   H     81.73000000    85.47000000    75.01000000
   H     79.75000000    87.19000000    76.30000000
   H     81.31000000    87.92000000    74.43000000
   H     81.30000000    86.90000000    72.88000000
   H     79.45000000    89.51000000    75.08000000
   H     79.65000000    89.34000000    73.36000000
   H     78.25000000    88.51000000    74.17000000
   N     77.58000000    86.11000000    75.46000000
   C     76.37000000    85.50000000    74.94000000
   C     75.60000000    86.52000000    74.11000000
   O     75.28000000    87.57000000    74.65000000
   C     75.60000000    84.97000000    76.15000000
   C     74.39000000    84.14000000    75.73000000
   C     75.25000000    86.04000000    77.18000000
   C     74.64000000    83.07000000    74.67000000
   H     77.50000000    86.97000000    75.97000000
   H     76.67000000    84.65000000    74.32000000
   H     76.24000000    84.27000000    76.68000000
   H     73.58000000    84.74000000    75.33000000
   H     74.06000000    83.65000000    76.65000000
   H     74.96000000    87.00000000    76.75000000
   H     74.34000000    85.65000000    77.64000000
   H     76.03000000    86.17000000    77.93000000
   H     75.64000000    82.64000000    74.74000000
   H     73.89000000    82.28000000    74.76000000
   H     74.69000000    83.64000000    73.74000000
   N     75.43000000    86.33000000    72.80000000
   C     74.97000000    87.32000000    71.84000000
   C     73.93000000    86.89000000    70.83000000
   O     73.04000000    87.65000000    70.45000000
   C     76.11000000    87.93000000    71.03000000
   C     75.94000000    89.07000000    70.03000000
   O     76.70000000    86.82000000    70.38000000
   H     75.71000000    85.46000000    72.37000000
   H     74.50000000    88.10000000    72.44000000
   H     76.83000000    88.31000000    71.75000000
   H     77.57000000    87.22000000    70.28000000
   H     75.48000000    88.72000000    69.11000000
   H     75.25000000    89.82000000    70.42000000
   H     76.89000000    89.53000000    69.77000000
   N     73.92000000    85.58000000    70.55000000
   C     73.09000000    84.91000000    69.57000000
   C     73.52000000    85.28000000    68.16000000
   O     74.42000000    86.06000000    67.89000000
   C     71.61000000    85.08000000    69.88000000
   C     71.21000000    84.49000000    71.23000000
   O     70.77000000    84.46000000    68.93000000
   H     74.69000000    85.11000000    70.98000000
   H     73.28000000    83.84000000    69.72000000
   H     71.32000000    86.12000000    70.00000000
   H     70.12000000    83.89000000    69.35000000
   H     71.67000000    83.53000000    71.46000000
   H     71.76000000    85.12000000    71.93000000
   H     70.13000000    84.57000000    71.38000000
   N     73.00000000    84.52000000    67.19000000
   C     73.04000000    84.54000000    65.74000000
   C     74.08000000    83.72000000    64.98000000
   O     74.51000000    84.07000000    63.88000000
   C     71.64000000    84.32000000    65.19000000
   C     70.97000000    85.57000000    64.61000000
   C     70.53000000    86.49000000    65.75000000
   C     69.84000000    87.80000000    65.39000000
   N     69.12000000    88.41000000    66.52000000
   H     72.39000000    83.83000000    67.60000000
   H     73.24000000    85.59000000    65.50000000
   H     70.92000000    83.83000000    65.85000000
   H     71.75000000    83.58000000    64.40000000
   H     70.09000000    85.35000000    63.99000000
   H     71.67000000    86.06000000    63.94000000
   H     71.40000000    86.87000000    66.28000000
   H     69.92000000    85.97000000    66.49000000
   H     69.07000000    87.53000000    64.66000000
   H     70.57000000    88.45000000    64.90000000
   H     69.72000000    88.52000000    67.32000000
   H     68.83000000    89.33000000    66.24000000
   H     68.33000000    87.89000000    66.89000000
   N     74.70000000    82.64000000    65.46000000
   C     74.58000000    81.74000000    66.59000000
   C     73.13000000    81.37000000    66.91000000
   O     72.70000000    81.49000000    68.05000000
   C     75.56000000    82.25000000    67.63000000
   C     77.02000000    81.94000000    67.30000000
   C     77.95000000    82.22000000    68.48000000
   O     77.57000000    82.90000000    69.46000000
   O     79.06000000    81.65000000    68.52000000
   H     75.42000000    82.31000000    64.84000000
   H     74.96000000    80.77000000    66.28000000
   H     75.35000000    81.69000000    68.55000000
   H     75.41000000    83.30000000    67.91000000
   H     77.32000000    82.56000000    66.46000000
   H     77.13000000    80.91000000    66.96000000
   N     72.30000000    80.95000000    65.95000000
   C     70.97000000    80.45000000    66.22000000
   H     70.27500000    80.85000000    65.48100000
   H     70.97200000    79.36100000    66.16400000
   H     70.65900000    80.76200000    67.21700000
   H     72.71000000    80.87000000    65.03000000
  Ca     80.30000000    82.80000000    70.36000000
   O     82.60000000    83.35000000    68.59000000
   H     82.53000000    84.30000000    68.55000000
   H     82.90000000    83.10000000    67.72000000
   O     79.93000000    84.96000000    68.36000000
   H     80.19000000    85.79000000    68.76000000
   H     79.19000000    85.18000000    67.80000000
   O     80.21000000    82.53000000    73.09000000
   H     80.72000000    82.09000000    73.77000000
   H     79.64000000    83.13000000    73.57000000
   O     79.49000000    80.23000000    70.91000000
   H     79.77000000    79.59000000    71.57000000
   H     78.72000000    79.85000000    70.50000000
   O     78.89000000    84.90000000    71.43000000
   H     78.18000000    85.49000000    71.18000000
   H     79.44000000    85.43000000    72.02000000

Ca 1.00



