%chk=loop1.apoCaM-CA-Ng.Init295.run15.water5.chk
%nprocshared=20
%mem=10GB
%nosave
#b3lyp/svp scf=(tight,noincore,xqc) Test 
#IOP(5/87=12) Density=Current Pop=(MK,readradii) iop(6/33=2) iop(6/42=6)

loop1.apoCaM-CA-Ng.Init295.run15.water5 

   0  1 
   C     72.02000000    52.11000000    69.63000000
   C     71.07000000    51.75000000    68.50000000
   O     70.36000000    50.76000000    68.61000000
   H     72.89900000    52.60800000    69.22000000
   H     71.51700000    52.77800000    70.32900000
   H     72.32700000    51.20300000    70.15000000
   N     71.18000000    52.52000000    67.41000000
   C     70.38000000    52.45000000    66.21000000
   C     68.89000000    52.35000000    66.51000000
   O     68.24000000    51.34000000    66.25000000
   C     70.99000000    51.31000000    65.40000000
   C     70.57000000    51.03000000    63.96000000
   O     71.11000000    50.07000000    63.37000000
   O     69.63000000    51.67000000    63.46000000
   H     71.88000000    53.25000000    67.45000000
   H     70.64000000    53.32000000    65.61000000
   H     70.77000000    50.41000000    65.98000000
   H     72.05000000    51.53000000    65.26000000
   N     68.26000000    53.41000000    67.01000000
   C     66.87000000    53.47000000    67.41000000
   C     66.09000000    54.61000000    66.76000000
   O     64.87000000    54.60000000    66.90000000
   C     66.80000000    53.76000000    68.91000000
   C     67.59000000    52.82000000    69.82000000
   C     67.30000000    53.20000000    71.27000000
   C     68.05000000    52.17000000    72.11000000
   N     67.79000000    52.19000000    73.55000000
   H     68.81000000    54.20000000    67.32000000
   H     66.37000000    52.54000000    67.12000000
   H     65.76000000    53.85000000    69.22000000
   H     67.17000000    54.77000000    69.09000000
   H     68.66000000    52.94000000    69.65000000
   H     67.29000000    51.80000000    69.60000000
   H     66.22000000    53.09000000    71.38000000
   H     67.64000000    54.22000000    71.48000000
   H     69.11000000    52.40000000    71.96000000
   H     67.76000000    51.20000000    71.72000000
   H     68.25000000    51.46000000    74.08000000
   H     68.24000000    53.03000000    73.88000000
   H     66.79000000    52.24000000    73.72000000
   N     66.80000000    55.57000000    66.16000000
   C     66.23000000    56.86000000    65.83000000
   C     66.58000000    57.36000000    64.44000000
   O     66.18000000    58.45000000    64.03000000
   C     66.76000000    57.76000000    66.94000000
   C     66.10000000    59.13000000    67.08000000
   O     65.10000000    59.49000000    66.41000000
   O     66.66000000    60.00000000    67.77000000
   H     67.81000000    55.55000000    66.23000000
   H     65.15000000    56.76000000    65.75000000
   H     67.84000000    57.71000000    66.86000000
   H     66.60000000    57.20000000    67.87000000
   N     67.42000000    56.61000000    63.73000000
   C     67.93000000    57.01000000    62.43000000
   C     68.96000000    58.12000000    62.48000000
   O     70.16000000    57.85000000    62.55000000
   H     67.66000000    55.69000000    64.06000000
   H     67.06000000    57.39000000    61.89000000
   H     68.33000000    56.11000000    61.95000000
   N     68.55000000    59.38000000    62.27000000
   C     69.33000000    60.58000000    62.48000000
   C     69.80000000    60.86000000    63.90000000
   O     70.75000000    61.61000000    64.11000000
   C     68.55000000    61.76000000    61.88000000
   C     67.06000000    61.97000000    62.05000000
   O     66.45000000    61.59000000    63.08000000
   O     66.46000000    62.57000000    61.13000000
   H     67.56000000    59.48000000    62.10000000
   H     70.20000000    60.45000000    61.84000000
   H     68.73000000    61.66000000    60.81000000
   H     69.08000000    62.69000000    62.06000000
   N     69.16000000    60.22000000    64.88000000
   C     69.72000000    60.16000000    66.21000000
   C     70.82000000    59.12000000    66.39000000
   O     71.54000000    58.75000000    65.48000000
   H     68.44000000    59.60000000    64.56000000
   H     68.94000000    59.99000000    66.97000000
   H     70.21000000    61.08000000    66.54000000
   N     70.75000000    58.55000000    67.60000000
   C     71.61000000    57.48000000    68.05000000
   C     72.67000000    57.99000000    69.02000000
   O     72.31000000    58.96000000    69.68000000
   C     70.80000000    56.27000000    68.50000000
   C     70.01000000    56.53000000    69.78000000
   O     69.88000000    55.90000000    67.50000000
   H     69.97000000    58.84000000    68.17000000
   H     72.19000000    57.17000000    67.18000000
   H     71.50000000    55.48000000    68.75000000
   H     70.41000000    55.74000000    66.71000000
   H     70.67000000    56.72000000    70.63000000
   H     69.33000000    57.34000000    69.51000000
   H     69.45000000    55.64000000    70.07000000
   N     73.79000000    57.28000000    69.16000000
   C     74.83000000    57.72000000    70.07000000
   C     75.51000000    59.02000000    69.65000000
   O     75.84000000    59.92000000    70.42000000
   C     75.85000000    56.62000000    70.36000000
   C     76.93000000    57.00000000    71.37000000
   C     76.45000000    56.11000000    69.06000000
   C     76.51000000    57.51000000    72.75000000
   H     74.02000000    56.59000000    68.47000000
   H     74.44000000    57.91000000    71.06000000
   H     75.28000000    55.79000000    70.78000000
   H     77.60000000    57.71000000    70.88000000
   H     77.63000000    56.16000000    71.41000000
   H     76.95000000    55.15000000    69.25000000
   H     75.77000000    55.89000000    68.24000000
   H     77.30000000    56.67000000    68.67000000
   H     75.90000000    56.79000000    73.30000000
   H     77.31000000    57.92000000    73.36000000
   H     75.94000000    58.43000000    72.59000000
   N     75.59000000    59.22000000    68.33000000
   C     76.19000000    60.30000000    67.57000000
   C     77.30000000    59.71000000    66.72000000
   O     77.18000000    58.57000000    66.27000000
   C     75.08000000    60.98000000    66.77000000
   C     74.10000000    61.76000000    67.63000000
   O     75.63000000    62.00000000    65.97000000
   H     75.39000000    58.42000000    67.75000000
   H     76.56000000    61.13000000    68.18000000
   H     74.51000000    60.21000000    66.25000000
   H     74.97000000    62.25000000    65.32000000
   H     74.66000000    62.21000000    68.46000000
   H     73.58000000    62.57000000    67.10000000
   H     73.34000000    61.12000000    68.08000000
   N     78.35000000    60.51000000    66.53000000
   C     79.51000000    60.18000000    65.72000000
   C     80.85000000    60.52000000    66.36000000
   O     81.77000000    59.73000000    66.19000000
   C     79.34000000    60.85000000    64.35000000
   C     80.45000000    60.64000000    63.32000000
   O     79.16000000    62.24000000    64.46000000
   H     78.23000000    61.47000000    66.83000000
   H     79.64000000    59.11000000    65.55000000
   H     78.43000000    60.50000000    63.86000000
   H     78.87000000    62.58000000    63.61000000
   H     80.10000000    61.10000000    62.39000000
   H     81.35000000    61.16000000    63.66000000
   H     80.57000000    59.59000000    63.09000000
   N     80.99000000    61.60000000    67.12000000
   C     82.16000000    61.90000000    67.92000000
   C     81.95000000    62.18000000    69.41000000
   O     80.93000000    62.74000000    69.81000000
   C     82.96000000    63.01000000    67.25000000
   C     83.56000000    62.77000000    65.87000000
   C     84.61000000    63.83000000    65.55000000
   C     85.21000000    63.51000000    64.19000000
   N     86.50000000    64.17000000    63.95000000
   H     80.27000000    62.31000000    67.09000000
   H     82.72000000    60.96000000    67.98000000
   H     83.76000000    63.20000000    67.96000000
   H     82.36000000    63.92000000    67.29000000
   H     82.75000000    62.73000000    65.14000000
   H     84.07000000    61.81000000    65.87000000
   H     85.34000000    63.79000000    66.36000000
   H     84.14000000    64.81000000    65.49000000
   H     84.48000000    63.91000000    63.49000000
   H     85.29000000    62.42000000    64.10000000
   H     86.61000000    64.12000000    62.95000000
   H     86.64000000    65.08000000    64.36000000
   H     87.27000000    63.62000000    64.31000000
   N     82.96000000    61.82000000    70.21000000
   C     82.94000000    61.92000000    71.65000000
   C     81.92000000    61.15000000    72.47000000
   O     81.23000000    61.71000000    73.32000000
   C     84.34000000    61.73000000    72.24000000
   C     85.25000000    62.94000000    72.01000000
   C     85.12000000    63.96000000    73.13000000
   O     86.16000000    64.47000000    73.61000000
   O     84.02000000    64.33000000    73.58000000
   H     83.69000000    61.29000000    69.75000000
   H     82.76000000    62.98000000    71.84000000
   H     84.74000000    60.88000000    71.70000000
   H     84.13000000    61.45000000    73.27000000
   H     85.20000000    63.40000000    71.03000000
   H     86.23000000    62.46000000    72.07000000
   N     81.70000000    59.84000000    72.35000000
   C     82.39000000    58.81000000    71.61000000
   H     83.37400000    58.64500000    72.04900000
   H     81.81500000    57.88500000    71.65100000
   H     82.50400000    59.12200000    70.57200000
   H     80.90000000    59.56000000    72.90000000
  Ca     64.44000000    60.43000000    64.13000000
   O     63.19000000    58.17000000    64.49000000
   H     62.96000000    57.88000000    63.61000000
   H     62.49000000    57.82000000    65.04000000
   O     64.18000000    59.73000000    61.57000000
   H     63.50000000    59.67000000    60.90000000
   H     65.00000000    59.64000000    61.09000000
   O     64.67000000    62.58000000    65.68000000
   H     64.04000000    62.30000000    66.33000000
   H     64.90000000    63.48000000    65.94000000
   O     62.19000000    61.08000000    65.69000000
   H     61.43000000    61.28000000    65.15000000
   H     61.83000000    60.83000000    66.54000000
   O     62.76000000    62.09000000    62.83000000
   H     62.60000000    62.45000000    61.96000000
   H     61.89000000    61.95000000    63.21000000

Ca 1.00



