%chk=loop2.apoCaM-CA-Ng.Init293.run15.water6.chk
%nprocshared=20
%mem=10GB
%nosave
#b3lyp/svp scf=(tight,noincore,xqc) Test 
#IOP(5/87=12) Density=Current Pop=(MK,readradii) iop(6/33=2) iop(6/42=6)

loop2.apoCaM-CA-Ng.Init293.run15.water6 

   -2  1 
   C     47.52000000   -14.61000000    26.42000000
   C     46.20000000   -15.34000000    26.62000000
   O     45.73000000   -15.54000000    27.74000000
   H     48.28600000   -15.32300000    26.11500000
   H     47.40200000   -13.85100000    25.64700000
   H     47.81800000   -14.13500000    27.35500000
   N     45.59000000   -15.81000000    25.53000000
   C     44.47000000   -16.73000000    25.39000000
   C     44.64000000   -18.10000000    26.04000000
   O     43.76000000   -18.70000000    26.66000000
   C     44.33000000   -17.01000000    23.89000000
   C     43.11000000   -17.87000000    23.58000000
   O     42.12000000   -17.89000000    24.34000000
   O     43.11000000   -18.56000000    22.54000000
   H     46.02000000   -15.51000000    24.67000000
   H     43.60000000   -16.25000000    25.82000000
   H     45.28000000   -17.42000000    23.58000000
   H     44.12000000   -16.13000000    23.29000000
   N     45.87000000   -18.59000000    25.91000000
   C     46.59000000   -19.76000000    26.39000000
   C     46.17000000   -20.03000000    27.83000000
   O     45.67000000   -21.11000000    28.09000000
   C     46.39000000   -20.90000000    25.39000000
   H     46.45000000   -17.91000000    25.44000000
   H     47.67000000   -19.62000000    26.46000000
   H     46.98000000   -21.80000000    25.54000000
   H     45.35000000   -21.17000000    25.24000000
   H     46.79000000   -20.49000000    24.47000000
   N     46.36000000   -19.07000000    28.73000000
   C     46.09000000   -19.23000000    30.15000000
   C     44.73000000   -19.79000000    30.55000000
   O     44.53000000   -20.44000000    31.58000000
   C     47.31000000   -19.83000000    30.82000000
   C     48.64000000   -19.16000000    30.51000000
   O     48.71000000   -17.92000000    30.43000000
   O     49.68000000   -19.81000000    30.24000000
   H     46.60000000   -18.13000000    28.43000000
   H     46.06000000   -18.22000000    30.54000000
   H     47.29000000   -20.88000000    30.52000000
   H     47.16000000   -19.95000000    31.90000000
   N     43.71000000   -19.47000000    29.76000000
   C     42.32000000   -19.86000000    29.95000000
   C     41.65000000   -19.13000000    31.11000000
   O     41.83000000   -17.93000000    31.25000000
   H     43.83000000   -18.87000000    28.96000000
   H     42.35000000   -20.93000000    30.15000000
   H     41.75000000   -19.63000000    29.06000000
   N     40.82000000   -19.83000000    31.88000000
   C     40.02000000   -19.33000000    32.98000000
   C     39.29000000   -18.06000000    32.57000000
   O     39.39000000   -17.11000000    33.34000000
   C     40.92000000   -19.28000000    34.21000000
   C     41.42000000   -20.62000000    34.72000000
   N     40.52000000   -21.55000000    35.06000000
   O     42.61000000   -20.94000000    34.66000000
   H     40.90000000   -20.84000000    31.84000000
   H     39.34000000   -20.12000000    33.29000000
   H     40.27000000   -18.91000000    35.01000000
   H     41.81000000   -18.67000000    34.12000000
   H     39.52000000   -21.46000000    35.07000000
   H     40.87000000   -22.35000000    35.56000000
   N     38.51000000   -18.02000000    31.48000000
   C     37.83000000   -16.86000000    30.95000000
   C     38.66000000   -15.76000000    30.30000000
   O     38.11000000   -14.82000000    29.74000000
   H     38.67000000   -18.77000000    30.83000000
   H     37.15000000   -16.50000000    31.73000000
   H     37.19000000   -17.28000000    30.17000000
   N     39.98000000   -15.88000000    30.16000000
   C     40.84000000   -14.97000000    29.43000000
   C     41.56000000   -13.98000000    30.34000000
   O     41.94000000   -14.37000000    31.44000000
   C     41.91000000   -15.69000000    28.61000000
   C     41.13000000   -16.69000000    27.77000000
   O     42.56000000   -14.82000000    27.71000000
   H     40.48000000   -16.60000000    30.66000000
   H     40.21000000   -14.35000000    28.79000000
   H     42.71000000   -16.16000000    29.18000000
   H     43.49000000   -14.88000000    27.95000000
   H     40.99000000   -17.69000000    28.19000000
   H     40.19000000   -16.25000000    27.43000000
   H     41.65000000   -16.92000000    26.84000000
   N     41.87000000   -12.81000000    29.79000000
   C     42.86000000   -11.94000000    30.38000000
   C     44.23000000   -12.59000000    30.48000000
   O     44.52000000   -13.55000000    29.77000000
   C     42.88000000   -10.59000000    29.67000000
   C     43.22000000    -9.49000000    30.67000000
   C     43.68000000   -10.53000000    28.37000000
   C     43.30000000    -8.05000000    30.16000000
   H     41.50000000   -12.65000000    28.86000000
   H     42.45000000   -11.72000000    31.37000000
   H     41.89000000   -10.26000000    29.37000000
   H     44.12000000    -9.65000000    31.26000000
   H     42.38000000    -9.42000000    31.36000000
   H     43.54000000    -9.50000000    28.02000000
   H     44.75000000   -10.67000000    28.52000000
   H     43.32000000   -11.28000000    27.67000000
   H     43.45000000    -7.38000000    31.01000000
   H     44.22000000    -8.10000000    29.57000000
   H     42.54000000    -7.69000000    29.47000000
   N     45.03000000   -12.15000000    31.45000000
   C     46.25000000   -12.84000000    31.83000000
   C     46.02000000   -13.88000000    32.92000000
   O     46.89000000   -14.70000000    33.17000000
   C     47.24000000   -11.80000000    32.35000000
   C     48.69000000   -12.21000000    32.56000000
   O     49.07000000   -13.28000000    32.04000000
   O     49.42000000   -11.40000000    33.17000000
   H     44.74000000   -11.37000000    32.02000000
   H     46.70000000   -13.25000000    30.93000000
   H     46.81000000   -11.36000000    33.25000000
   H     47.23000000   -11.02000000    31.59000000
   N     44.92000000   -13.79000000    33.68000000
   C     44.65000000   -14.64000000    34.82000000
   C     44.32000000   -13.98000000    36.15000000
   O     44.80000000   -14.50000000    37.15000000
   C     43.56000000   -15.66000000    34.46000000
   C     42.64000000   -16.29000000    35.47000000
   C     43.08000000   -17.31000000    36.32000000
   C     41.42000000   -15.70000000    35.83000000
   C     42.35000000   -17.71000000    37.45000000
   C     40.63000000   -16.12000000    36.91000000
   C     41.12000000   -17.11000000    37.76000000
   H     44.26000000   -13.10000000    33.36000000
   H     45.60000000   -15.14000000    35.00000000
   H     44.02000000   -16.49000000    33.92000000
   H     42.98000000   -15.03000000    33.79000000
   H     44.02000000   -17.82000000    36.13000000
   H     41.07000000   -14.82000000    35.31000000
   H     42.81000000   -18.40000000    38.14000000
   H     39.72000000   -15.58000000    37.12000000
   H     40.56000000   -17.39000000    38.64000000
   N     43.52000000   -12.92000000    36.28000000
   C     42.78000000   -12.23000000    35.24000000
   C     43.44000000   -10.98000000    34.67000000
   O     43.38000000   -10.83000000    33.45000000
   C     41.47000000   -11.85000000    35.91000000
   C     41.79000000   -11.74000000    37.40000000
   C     43.01000000   -12.63000000    37.61000000
   H     42.56000000   -12.92000000    34.42000000
   H     41.11000000   -10.92000000    35.47000000
   H     40.73000000   -12.63000000    35.75000000
   H     41.98000000   -10.73000000    37.76000000
   H     40.97000000   -12.16000000    37.98000000
   H     43.69000000   -12.11000000    38.28000000
   H     42.63000000   -13.51000000    38.12000000
   N     44.13000000   -10.09000000    35.39000000
   C     44.40000000    -8.70000000    35.06000000
   C     45.76000000    -8.63000000    34.38000000
   O     46.67000000    -9.33000000    34.81000000
   C     44.36000000    -7.85000000    36.33000000
   C     43.03000000    -7.83000000    37.07000000
   C     42.88000000    -6.61000000    37.98000000
   O     43.44000000    -6.76000000    39.09000000
   O     42.26000000    -5.54000000    37.82000000
   H     44.52000000   -10.41000000    36.26000000
   H     43.63000000    -8.35000000    34.38000000
   H     44.64000000    -6.85000000    36.03000000
   H     45.15000000    -8.15000000    37.03000000
   H     42.94000000    -8.77000000    37.62000000
   H     42.25000000    -7.73000000    36.31000000
   N     45.99000000    -7.78000000    33.38000000
   C     47.20000000    -7.77000000    32.59000000
   H     48.01800000    -8.19100000    33.17400000
   H     47.05200000    -8.36700000    31.69000000
   H     47.44400000    -6.74500000    32.31000000
   H     45.27000000    -7.08000000    33.29000000
  Ca     48.91000000   -15.92100000    31.89000000
   O     46.78000000   -17.64100000    33.31000000
   H     46.18000000   -16.95100000    33.58000000
   H     46.36000000   -18.46100000    33.59000000
   O     51.63000000   -15.64100000    31.45000000
   H     52.21000000   -15.15100000    32.04000000
   H     52.17000000   -16.34100000    31.10000000
   O     49.94000000   -17.81100000    33.39000000
   H     50.82000000   -18.13100000    33.58000000
   H     49.37000000   -18.57100000    33.49000000
   O     49.55000000   -15.11100000    29.42000000
   H     50.35000000   -14.65100000    29.18000000
   H     49.30000000   -15.59100000    28.63000000
   O     46.47000000   -15.93100000    30.28000000
   H     46.16000000   -15.44100000    29.52000000
   H     45.73000000   -15.95100000    30.88000000
   O     49.66000000   -15.26100000    34.48000000
   H     49.30000000   -14.40100000    34.69000000
   H     50.58000000   -15.21100000    34.75000000

Ca 1.00



