%chk=loop3.apoCaM-CA-Ng.Init31.run99.water5.chk
%nprocshared=20
%mem=10GB
%nosave
#b3lyp/svp scf=(tight,noincore,xqc) Test 
#IOP(5/87=12) Density=Current Pop=(MK,readradii) iop(6/33=2) iop(6/42=6)

loop3.apoCaM-CA-Ng.Init31.run99.water5 

   0  1 
   C     80.81000000    65.44000000    46.35000000
   C     79.97000000    64.69000000    45.32000000
   O     79.73000000    63.49000000    45.29000000
   H     81.71100000    65.82500000    45.87200000
   H     80.23200000    66.27000000    46.75600000
   H     81.08800000    64.76100000    47.15600000
   N     79.25000000    65.47000000    44.51000000
   C     78.74000000    64.95000000    43.25000000
   C     79.90000000    64.52000000    42.38000000
   O     80.98000000    65.12000000    42.43000000
   C     77.81000000    65.94000000    42.54000000
   C     78.44000000    67.32000000    42.39000000
   O     78.94000000    67.67000000    41.30000000
   O     78.43000000    68.01000000    43.43000000
   H     79.13000000    66.46000000    44.69000000
   H     78.15000000    64.07000000    43.52000000
   H     76.83000000    66.00000000    43.01000000
   H     77.44000000    65.55000000    41.59000000
   N     79.73000000    63.40000000    41.67000000
   C     80.55000000    62.98000000    40.55000000
   C     81.74000000    62.09000000    40.89000000
   O     82.78000000    62.18000000    40.25000000
   C     79.65000000    62.33000000    39.50000000
   C     80.35000000    61.89000000    38.21000000
   C     79.28000000    61.29000000    37.31000000
   C     79.96000000    60.42000000    36.26000000
   N     79.20000000    60.38000000    35.00000000
   H     78.80000000    63.01000000    41.74000000
   H     80.89000000    63.91000000    40.11000000
   H     78.92000000    63.04000000    39.12000000
   H     79.16000000    61.46000000    39.95000000
   H     81.10000000    61.15000000    38.49000000
   H     80.84000000    62.78000000    37.81000000
   H     78.72000000    62.09000000    36.81000000
   H     78.61000000    60.65000000    37.89000000
   H     79.98000000    59.44000000    36.73000000
   H     80.96000000    60.71000000    35.94000000
   H     78.99000000    61.34000000    34.75000000
   H     79.84000000    60.07000000    34.29000000
   H     78.42000000    59.74000000    35.08000000
   N     81.62000000    61.18000000    41.86000000
   C     82.60000000    60.18000000    42.25000000
   C     82.62000000    58.97000000    41.33000000
   O     82.31000000    57.82000000    41.65000000
   C     82.42000000    59.80000000    43.71000000
   C     80.99000000    59.40000000    44.06000000
   O     80.70000000    59.17000000    45.25000000
   O     80.13000000    59.18000000    43.18000000
   H     80.76000000    61.14000000    42.38000000
   H     83.55000000    60.71000000    42.24000000
   H     82.74000000    60.65000000    44.31000000
   H     83.12000000    58.99000000    43.91000000
   N     83.12000000    59.20000000    40.12000000
   C     83.35000000    58.19000000    39.11000000
   C     82.14000000    57.69000000    38.34000000
   O     81.03000000    57.96000000    38.80000000
   H     83.38000000    60.15000000    39.90000000
   H     83.99000000    57.39000000    39.49000000
   H     83.98000000    58.71000000    38.39000000
   N     82.32000000    56.98000000    37.23000000
   C     83.62000000    56.63000000    36.68000000
   C     84.15000000    55.22000000    36.90000000
   O     83.35000000    54.33000000    37.15000000
   C     83.52000000    56.97000000    35.20000000
   C     82.95000000    58.32000000    34.76000000
   N     82.41000000    58.40000000    33.54000000
   O     83.08000000    59.30000000    35.49000000
   H     81.47000000    56.98000000    36.69000000
   H     84.39000000    57.28000000    37.12000000
   H     82.88000000    56.24000000    34.71000000
   H     84.41000000    56.74000000    34.62000000
   H     82.69000000    57.70000000    32.88000000
   H     81.97000000    59.25000000    33.22000000
   N     85.45000000    54.93000000    36.83000000
   C     86.52000000    55.90000000    36.72000000
   C     87.24000000    56.26000000    38.01000000
   O     86.89000000    57.30000000    38.57000000
   H     85.68000000    53.95000000    36.91000000
   H     86.33000000    56.86000000    36.26000000
   H     87.21000000    55.48000000    35.98000000
   N     88.09000000    55.42000000    38.61000000
   C     88.54000000    55.50000000    39.99000000
   C     90.04000000    55.74000000    40.11000000
   O     90.81000000    54.82000000    40.37000000
   C     88.00000000    54.30000000    40.75000000
   C     86.52000000    54.00000000    40.72000000
   C     85.56000000    54.96000000    41.08000000
   C     86.07000000    52.73000000    40.36000000
   C     84.18000000    54.75000000    41.03000000
   C     84.69000000    52.46000000    40.34000000
   C     83.75000000    53.44000000    40.71000000
   O     82.42000000    53.23000000    40.53000000
   H     88.12000000    54.50000000    38.21000000
   H     88.15000000    56.44000000    40.38000000
   H     88.38000000    54.16000000    41.77000000
   H     88.57000000    53.51000000    40.26000000
   H     85.78000000    55.97000000    41.39000000
   H     86.73000000    51.92000000    40.07000000
   H     83.55000000    55.60000000    41.25000000
   H     84.31000000    51.48000000    40.12000000
   H     82.28000000    52.38000000    40.11000000
   N     90.50000000    56.96000000    39.84000000
   C     91.78000000    57.33000000    39.27000000
   C     92.58000000    58.17000000    40.25000000
   O     93.78000000    58.30000000    40.01000000
   C     91.56000000    58.02000000    37.92000000
   C     91.25000000    56.96000000    36.87000000
   C     90.54000000    59.15000000    37.93000000
   C     91.47000000    57.45000000    35.44000000
   H     89.75000000    57.63000000    39.70000000
   H     92.30000000    56.38000000    39.24000000
   H     92.50000000    58.52000000    37.66000000
   H     90.26000000    56.55000000    37.06000000
   H     91.99000000    56.16000000    37.00000000
   H     90.68000000    59.73000000    37.01000000
   H     89.52000000    58.79000000    38.03000000
   H     90.83000000    59.75000000    38.79000000
   H     91.61000000    56.60000000    34.77000000
   H     90.65000000    58.06000000    35.06000000
   H     92.33000000    58.11000000    35.44000000
   N     92.02000000    58.70000000    41.35000000
   C     92.72000000    59.55000000    42.29000000
   C     92.26000000    61.00000000    42.29000000
   O     92.86000000    61.93000000    42.81000000
   C     92.59000000    59.01000000    43.71000000
   O     91.46000000    59.57000000    44.34000000
   H     91.02000000    58.68000000    41.43000000
   H     93.79000000    59.59000000    42.08000000
   H     93.49000000    59.28000000    44.27000000
   H     92.40000000    57.94000000    43.72000000
   H     90.70000000    59.17000000    43.90000000
   N     91.12000000    61.29000000    41.65000000
   C     90.44000000    62.57000000    41.68000000
   C     89.70000000    62.88000000    42.98000000
   O     88.64000000    63.51000000    43.00000000
   C     89.60000000    62.62000000    40.41000000
   H     90.61000000    60.46000000    41.39000000
   H     91.11000000    63.42000000    41.66000000
   H     89.35000000    63.68000000    40.34000000
   H     90.17000000    62.39000000    39.51000000
   H     88.69000000    62.07000000    40.63000000
   N     90.28000000    62.48000000    44.11000000
   C     89.52000000    62.43000000    45.35000000
   C     88.22000000    61.65000000    45.39000000
   O     87.37000000    61.83000000    46.25000000
   C     89.34000000    63.84000000    45.91000000
   H     91.18000000    62.03000000    44.06000000
   H     90.18000000    61.90000000    46.04000000
   H     88.58000000    64.38000000    45.34000000
   H     88.93000000    63.71000000    46.91000000
   H     90.31000000    64.32000000    46.01000000
   N     87.91000000    60.80000000    44.40000000
   C     86.69000000    60.01000000    44.39000000
   C     86.82000000    58.83000000    45.34000000
   O     85.79000000    58.46000000    45.90000000
   C     86.29000000    59.59000000    42.98000000
   C     87.13000000    58.46000000    42.38000000
   C     88.62000000    58.74000000    42.23000000
   O     89.39000000    58.61000000    43.20000000
   O     89.03000000    59.22000000    41.15000000
   H     88.46000000    60.70000000    43.56000000
   H     85.82000000    60.58000000    44.73000000
   H     86.34000000    60.41000000    42.27000000
   H     85.24000000    59.34000000    43.09000000
   H     86.72000000    58.15000000    41.42000000
   H     87.08000000    57.58000000    43.02000000
   N     88.02000000    58.33000000    45.61000000
   C     88.22000000    57.27000000    46.58000000
   H     89.01000000    57.55700000    47.27400000
   H     87.29500000    57.10300000    47.13200000
   H     88.50600000    56.35400000    46.06400000
   H     88.80000000    58.57000000    45.02000000
  Ca     78.30000000    58.11000000    44.62000000
   O     78.66000000    56.34000000    42.49000000
   H     79.37000000    56.37000000    41.84000000
   H     78.38000000    55.42000000    42.50000000
   O     77.05000000    59.00000000    42.46000000
   H     77.67000000    58.81000000    41.77000000
   H     76.19000000    58.92000000    42.05000000
   O     78.29000000    60.94000000    44.47000000
   H     78.01000000    61.30000000    43.63000000
   H     78.71000000    61.67000000    44.92000000
   O     76.72000000    55.84000000    45.00000000
   H     76.47000000    55.48000000    45.85000000
   H     75.96000000    55.68000000    44.44000000
   O     79.50000000    56.47000000    46.17000000
   H     79.48000000    55.61000000    46.59000000
   H     80.02000000    57.01000000    46.75000000

Ca 1.00



