%chk=loop2.holoCaM.run54.water2.chk
%nprocshared=20
%mem=10GB
%nosave
#b3lyp/svp scf=(tight,noincore,xqc) Test 
#IOP(5/87=12) Density=Current Pop=(MK,readradii) iop(6/33=2) iop(6/42=6)

loop2.holoCaM.run54.water2 

   -2  1 
   C     54.31000000    63.57000000    -6.57500000
   C     53.09000000    64.12000000    -5.84500000
   O     53.20000000    64.75000000    -4.79500000
   H     55.15700000    63.53400000    -5.89000000
   H     54.09400000    62.56500000    -6.93900000
   H     54.55300000    64.21800000    -7.41700000
   N     51.86000000    63.76000000    -6.23500000
   C     50.68000000    64.00000000    -5.42500000
   C     50.69000000    63.30000000    -4.07500000
   O     50.56000000    62.08000000    -4.07500000
   C     49.42000000    63.86000000    -6.28500000
   C     48.18000000    64.18000000    -5.47500000
   O     47.11000000    63.74000000    -5.94500000
   O     48.19000000    64.62000000    -4.30500000
   H     51.73000000    63.42000000    -7.17500000
   H     50.75000000    65.07000000    -5.23500000
   H     49.45000000    62.87000000    -6.72500000
   H     49.38000000    64.59000000    -7.10500000
   N     50.74000000    64.07000000    -2.99500000
   C     50.96000000    63.59000000    -1.64500000
   C     49.64000000    63.28000000    -0.95500000
   O     49.66000000    62.54000000     0.03500000
   C     51.83000000    64.63000000    -0.93500000
   H     50.79000000    65.08000000    -3.03500000
   H     51.63000000    62.74000000    -1.74500000
   H     51.30000000    65.58000000    -0.96500000
   H     52.12000000    64.36000000     0.07500000
   H     52.78000000    64.71000000    -1.46500000
   N     48.49000000    63.65000000    -1.51500000
   C     47.15000000    63.36000000    -1.03500000
   C     46.24000000    62.61000000    -1.99500000
   O     45.19000000    62.12000000    -1.56500000
   C     46.37000000    64.59000000    -0.59500000
   C     46.00000000    65.52000000    -1.73500000
   O     45.04000000    65.32000000    -2.51500000
   O     46.73000000    66.53000000    -1.89500000
   H     48.56000000    64.18000000    -2.37500000
   H     47.21000000    62.71000000    -0.15500000
   H     47.03000000    65.15000000     0.06500000
   H     45.49000000    64.30000000    -0.01500000
   N     46.57000000    62.54000000    -3.28500000
   C     45.94000000    61.60000000    -4.18500000
   C     44.57000000    61.91000000    -4.77500000
   O     43.95000000    60.96000000    -5.23500000
   H     47.40000000    62.98000000    -3.65500000
   H     46.02000000    60.61000000    -3.72500000
   H     46.57000000    61.51000000    -5.07500000
   N     44.11000000    63.15000000    -4.65500000
   C     42.95000000    63.66000000    -5.35500000
   C     43.21000000    63.84000000    -6.83500000
   O     42.29000000    63.66000000    -7.62500000
   C     42.48000000    64.93000000    -4.65500000
   C     41.01000000    65.26000000    -4.90500000
   N     40.73000000    66.53000000    -5.21500000
   O     40.11000000    64.43000000    -4.90500000
   H     44.72000000    63.75000000    -4.10500000
   H     42.19000000    62.88000000    -5.24500000
   H     43.13000000    65.76000000    -4.93500000
   H     42.52000000    64.73000000    -3.58500000
   H     41.46000000    67.22000000    -5.21500000
   H     39.80000000    66.75000000    -5.54500000
   N     44.46000000    64.03000000    -7.29500000
   C     44.81000000    64.26000000    -8.67500000
   C     45.25000000    65.67000000    -9.04500000
   O     45.42000000    65.97000000   -10.22500000
   H     45.16000000    63.96000000    -6.57500000
   H     43.97000000    64.06000000    -9.35500000
   H     45.55000000    63.52000000    -8.99500000
   N     45.31000000    66.60000000    -8.08500000
   C     45.77000000    67.95000000    -8.32500000
   C     47.03000000    68.35000000    -7.57500000
   O     47.25000000    67.86000000    -6.46500000
   C     44.68000000    69.00000000    -8.15500000
   C     43.40000000    68.59000000    -8.88500000
   O     44.26000000    69.01000000    -6.80500000
   H     45.09000000    66.33000000    -7.13500000
   H     46.12000000    68.01000000    -9.35500000
   H     45.03000000    69.97000000    -8.50500000
   H     43.48000000    69.58000000    -6.75500000
   H     43.55000000    68.51000000    -9.96500000
   H     42.93000000    67.66000000    -8.55500000
   H     42.72000000    69.43000000    -8.81500000
   N     47.85000000    69.28000000    -8.07500000
   C     49.16000000    69.59000000    -7.54500000
   C     49.12000000    70.88000000    -6.72500000
   O     48.95000000    71.95000000    -7.30500000
   C     50.19000000    69.63000000    -8.66500000
   C     50.39000000    68.24000000    -9.25500000
   C     51.52000000    70.24000000    -8.21500000
   C     50.89000000    67.23000000    -8.22500000
   H     47.56000000    69.67000000    -8.96500000
   H     49.58000000    68.78000000    -6.95500000
   H     49.83000000    70.26000000    -9.48500000
   H     51.12000000    68.29000000   -10.06500000
   H     49.48000000    67.84000000    -9.71500000
   H     51.76000000    69.86000000    -7.22500000
   H     52.35000000    70.01000000    -8.88500000
   H     51.35000000    71.32000000    -8.18500000
   H     51.61000000    67.69000000    -7.54500000
   H     50.05000000    66.86000000    -7.65500000
   H     51.49000000    66.45000000    -8.70500000
   N     49.37000000    70.83000000    -5.41500000
   C     49.73000000    71.89000000    -4.49500000
   C     51.15000000    72.38000000    -4.77500000
   O     51.97000000    71.58000000    -5.21500000
   C     49.61000000    71.44000000    -3.04500000
   C     48.37000000    70.62000000    -2.70500000
   O     48.40000000    69.39000000    -2.93500000
   O     47.48000000    71.04000000    -1.93500000
   H     49.63000000    69.94000000    -5.01500000
   H     49.13000000    72.77000000    -4.71500000
   H     49.68000000    72.32000000    -2.40500000
   H     50.52000000    70.86000000    -2.84500000
   N     51.47000000    73.64000000    -4.50500000
   C     52.79000000    74.24000000    -4.55500000
   C     53.81000000    73.40000000    -3.80500000
   O     54.86000000    73.22000000    -4.42500000
   C     52.66000000    75.69000000    -4.10500000
   C     53.96000000    76.47000000    -4.21500000
   C     54.52000000    76.72000000    -5.47500000
   C     54.63000000    76.81000000    -3.04500000
   C     55.76000000    77.36000000    -5.57500000
   C     55.86000000    77.47000000    -3.14500000
   C     56.48000000    77.57000000    -4.39500000
   H     50.65000000    74.17000000    -4.22500000
   H     53.14000000    74.11000000    -5.57500000
   H     52.29000000    75.71000000    -3.08500000
   H     51.87000000    76.17000000    -4.67500000
   H     53.93000000    76.45000000    -6.33500000
   H     54.16000000    76.61000000    -2.09500000
   H     56.20000000    77.64000000    -6.51500000
   H     56.39000000    77.70000000    -2.22500000
   H     57.48000000    77.98000000    -4.43500000
   N     53.69000000    72.82000000    -2.60500000
   C     54.68000000    71.89000000    -2.10500000
   C     54.89000000    70.59000000    -2.86500000
   O     55.85000000    69.84000000    -2.65500000
   C     54.22000000    71.56000000    -0.68500000
   C     53.07000000    72.50000000    -0.31500000
   C     52.56000000    72.86000000    -1.70500000
   H     55.63000000    72.41000000    -1.97500000
   H     53.88000000    70.52000000    -0.63500000
   H     54.95000000    71.81000000     0.08500000
   H     52.30000000    71.98000000     0.24500000
   H     53.51000000    73.34000000     0.22500000
   H     51.86000000    72.07000000    -1.98500000
   H     52.16000000    73.87000000    -1.74500000
   N     53.99000000    70.23000000    -3.77500000
   C     54.18000000    69.13000000    -4.69500000
   C     54.82000000    69.53000000    -6.02500000
   O     55.50000000    68.74000000    -6.67500000
   C     52.82000000    68.46000000    -4.76500000
   C     52.24000000    67.76000000    -3.53500000
   C     50.77000000    67.43000000    -3.75500000
   O     50.16000000    67.78000000    -4.78500000
   O     50.12000000    66.88000000    -2.84500000
   H     53.22000000    70.88000000    -3.90500000
   H     54.85000000    68.39000000    -4.25500000
   H     52.96000000    67.67000000    -5.50500000
   H     52.03000000    69.08000000    -5.19500000
   H     52.38000000    68.44000000    -2.69500000
   H     52.87000000    66.88000000    -3.41500000
   N     54.56000000    70.79000000    -6.38500000
   C     55.19000000    71.45000000    -7.50500000
   H     56.19600000    71.05400000    -7.64000000
   H     54.60600000    71.27200000    -8.40800000
   H     55.24500000    72.52100000    -7.31200000
   H     53.89000000    71.29000000    -5.82500000
  Ca     47.80000000    67.16000000    -4.05500000
   O     45.57000000    68.92000000    -4.45500000
   H     45.16000000    69.56000000    -3.86500000
   H     45.36000000    69.25000000    -5.33500000
   O     45.58000000    65.77000000    -4.99500000
   H     45.96000000    64.90000000    -5.13500000
   H     45.23000000    65.73000000    -4.10500000

Ca 1.00



