%chk=loop3.apoCaM-CA-Ng.Init293.run24.water4.chk
%nprocshared=20
%mem=10GB
%nosave
#b3lyp/svp scf=(tight,noincore,xqc) Test 
#IOP(5/87=12) Density=Current Pop=(MK,readradii) iop(6/33=2) iop(6/42=6)

loop3.apoCaM-CA-Ng.Init293.run24.water4 

   0  1 
   C     38.94000000     8.07000000     7.67000000
   C     37.92000000     8.80000000     6.81000000
   O     36.96000000     8.25000000     6.28000000
   H     39.81400000     8.70500000     7.81400000
   H     38.49800000     7.83600000     8.63900000
   H     39.24000000     7.14700000     7.17400000
   N     38.06000000    10.11000000     6.64000000
   C     37.08000000    11.02000000     6.08000000
   C     36.10000000    11.53000000     7.12000000
   O     36.49000000    11.58000000     8.29000000
   C     37.71000000    12.22000000     5.39000000
   C     38.77000000    11.95000000     4.33000000
   O     38.55000000    12.43000000     3.19000000
   O     39.69000000    11.12000000     4.52000000
   H     38.93000000    10.57000000     6.88000000
   H     36.47000000    10.46000000     5.37000000
   H     38.22000000    12.86000000     6.11000000
   H     36.90000000    12.80000000     4.95000000
   N     34.90000000    11.97000000     6.75000000
   C     33.80000000    12.37000000     7.60000000
   C     33.96000000    13.56000000     8.54000000
   O     32.97000000    14.06000000     9.07000000
   C     33.06000000    11.18000000     8.22000000
   C     32.74000000    10.11000000     7.18000000
   C     33.89000000     9.12000000     7.06000000
   C     33.40000000     7.77000000     6.57000000
   N     34.48000000     6.77000000     6.67000000
   H     34.65000000    11.86000000     5.77000000
   H     33.06000000    12.81000000     6.93000000
   H     32.12000000    11.48000000     8.69000000
   H     33.64000000    10.75000000     9.04000000
   H     32.60000000    10.60000000     6.22000000
   H     31.82000000     9.59000000     7.47000000
   H     34.39000000     8.88000000     8.00000000
   H     34.61000000     9.48000000     6.32000000
   H     33.23000000     7.85000000     5.49000000
   H     32.49000000     7.39000000     7.04000000
   H     35.33000000     7.12000000     6.25000000
   H     34.74000000     6.57000000     7.62000000
   H     34.22000000     5.96000000     6.13000000
   N     35.18000000    14.08000000     8.63000000
   C     35.52000000    15.23000000     9.44000000
   C     36.69000000    15.96000000     8.77000000
   O     37.58000000    15.44000000     8.11000000
   C     35.97000000    14.75000000    10.82000000
   C     35.87000000    15.89000000    11.83000000
   O     34.95000000    16.74000000    11.85000000
   O     36.70000000    15.83000000    12.76000000
   H     35.96000000    13.54000000     8.27000000
   H     34.74000000    15.97000000     9.61000000
   H     36.93000000    14.27000000    10.65000000
   H     35.21000000    13.99000000    11.00000000
   N     36.75000000    17.24000000     9.12000000
   C     37.91000000    18.09000000     8.92000000
   C     37.99000000    19.35000000     9.77000000
   O     36.94000000    19.90000000    10.11000000
   H     35.96000000    17.59000000     9.65000000
   H     37.93000000    18.35000000     7.86000000
   H     38.78000000    17.48000000     9.15000000
   N     39.16000000    19.70000000    10.31000000
   C     39.44000000    20.67000000    11.35000000
   C     40.19000000    21.93000000    10.92000000
   O     40.68000000    22.76000000    11.69000000
   C     40.16000000    19.94000000    12.48000000
   C     39.26000000    19.03000000    13.31000000
   N     39.79000000    18.23000000    14.24000000
   O     38.09000000    18.78000000    13.07000000
   H     39.91000000    19.12000000     9.98000000
   H     38.51000000    20.96000000    11.82000000
   H     40.72000000    20.60000000    13.15000000
   H     40.83000000    19.23000000    12.01000000
   H     40.71000000    18.41000000    14.63000000
   H     39.19000000    17.58000000    14.71000000
   N     40.34000000    22.14000000     9.61000000
   C     41.28000000    23.06000000     9.02000000
   C     42.72000000    22.74000000     9.38000000
   O     43.23000000    21.63000000     9.31000000
   H     40.07000000    21.37000000     9.01000000
   H     41.02000000    24.09000000     9.27000000
   H     41.20000000    22.89000000     7.94000000
   N     43.43000000    23.78000000     9.84000000
   C     44.77000000    23.79000000    10.38000000
   C     45.13000000    22.79000000    11.48000000
   O     46.28000000    22.44000000    11.71000000
   C     45.74000000    23.81000000     9.20000000
   C     45.56000000    24.86000000     8.13000000
   C     45.13000000    24.47000000     6.86000000
   C     45.59000000    26.23000000     8.41000000
   C     44.63000000    25.41000000     5.95000000
   C     45.17000000    27.21000000     7.50000000
   C     44.63000000    26.79000000     6.26000000
   O     44.01000000    27.69000000     5.46000000
   H     42.89000000    24.64000000     9.84000000
   H     44.79000000    24.71000000    10.96000000
   H     45.70000000    22.81000000     8.77000000
   H     46.74000000    23.86000000     9.62000000
   H     45.22000000    23.42000000     6.65000000
   H     45.97000000    26.61000000     9.35000000
   H     44.27000000    25.09000000     4.99000000
   H     45.14000000    28.26000000     7.75000000
   H     44.15000000    28.60000000     5.74000000
   N     44.09000000    22.25000000    12.11000000
   C     44.08000000    21.26000000    13.17000000
   C     44.31000000    21.88000000    14.54000000
   O     43.59000000    21.57000000    15.48000000
   C     44.97000000    20.02000000    13.08000000
   C     44.62000000    19.25000000    11.81000000
   C     44.97000000    19.15000000    14.33000000
   C     45.61000000    18.18000000    11.36000000
   H     43.16000000    22.49000000    11.80000000
   H     43.08000000    20.82000000    13.23000000
   H     46.00000000    20.38000000    13.02000000
   H     44.65000000    19.94000000    10.97000000
   H     43.60000000    18.88000000    11.88000000
   H     45.26000000    18.14000000    14.06000000
   H     45.54000000    19.56000000    15.17000000
   H     43.94000000    18.94000000    14.59000000
   H     46.61000000    18.57000000    11.18000000
   H     45.55000000    17.34000000    12.05000000
   H     45.25000000    17.83000000    10.39000000
   N     45.26000000    22.83000000    14.60000000
   C     45.41000000    23.78000000    15.68000000
   C     45.61000000    23.08000000    17.02000000
   O     45.22000000    23.65000000    18.04000000
   C     46.63000000    24.65000000    15.40000000
   O     46.49000000    25.18000000    14.10000000
   H     45.80000000    23.02000000    13.77000000
   H     44.50000000    24.38000000    15.71000000
   H     47.47000000    23.96000000    15.45000000
   H     46.90000000    25.42000000    16.13000000
   H     47.39000000    25.47000000    13.95000000
   N     46.14000000    21.86000000    17.03000000
   C     46.48000000    20.97000000    18.12000000
   C     45.36000000    20.48000000    19.03000000
   O     45.58000000    20.04000000    20.15000000
   C     47.78000000    21.41000000    18.79000000
   H     46.59000000    21.55000000    16.18000000
   H     46.62000000    20.03000000    17.59000000
   H     48.56000000    21.47000000    18.03000000
   H     47.71000000    22.37000000    19.30000000
   H     47.94000000    20.63000000    19.54000000
   N     44.12000000    20.50000000    18.52000000
   C     42.92000000    20.23000000    19.27000000
   C     42.14000000    19.00000000    18.81000000
   O     42.45000000    18.41000000    17.78000000
   C     42.06000000    21.49000000    19.22000000
   H     43.99000000    20.94000000    17.62000000
   H     43.13000000    20.01000000    20.32000000
   H     42.70000000    22.34000000    19.49000000
   H     41.63000000    21.65000000    18.23000000
   H     41.31000000    21.38000000    20.00000000
   N     41.03000000    18.74000000    19.50000000
   C     40.06000000    17.69000000    19.24000000
   C     40.77000000    16.36000000    19.39000000
   O     40.35000000    15.35000000    18.83000000
   C     39.39000000    17.90000000    17.89000000
   C     38.04000000    17.20000000    17.82000000
   C     37.29000000    17.66000000    16.58000000
   O     37.45000000    17.00000000    15.53000000
   O     36.48000000    18.61000000    16.56000000
   H     40.82000000    19.33000000    20.29000000
   H     39.36000000    17.71000000    20.07000000
   H     40.02000000    17.55000000    17.07000000
   H     39.24000000    18.98000000    17.75000000
   H     37.43000000    17.31000000    18.72000000
   H     38.22000000    16.12000000    17.84000000
   N     41.88000000    16.38000000    20.14000000
   C     42.64000000    15.21000000    20.52000000
   H     43.57400000    15.52000000    20.98900000
   H     42.06100000    14.61300000    21.22500000
   H     42.86000000    14.61500000    19.63300000
   H     42.09000000    17.21000000    20.67000000
  Ca     35.57000000    18.09000000    14.09000000
   O     35.81000000    20.75000000    14.50000000
   H     35.79000000    21.37000000    13.78000000
   H     35.48000000    21.25000000    15.25000000
   O     32.76000000    18.47000000    13.86000000
   H     31.90000000    18.18000000    14.15000000
   H     32.58000000    19.23000000    13.30000000
   O     34.28000000    16.40000000    15.56000000
   H     33.37000000    16.18000000    15.78000000
   H     34.75000000    16.33000000    16.39000000
   O     34.99000000    19.57000000    12.06000000
   H     34.37000000    19.37000000    11.36000000
   H     35.76000000    19.91000000    11.61000000

Ca 1.00



