%chk=loop3.apoCaM-CA-Ng.Init295.run85.water4.chk
%nprocshared=20
%mem=10GB
%nosave
#b3lyp/svp scf=(tight,noincore,xqc) Test 
#IOP(5/87=12) Density=Current Pop=(MK,readradii) iop(6/33=2) iop(6/42=6)

loop3.apoCaM-CA-Ng.Init295.run85.water4 

   0  1 
   C     -4.79000000   -19.44000000    58.05000000
   C     -5.39000000   -20.83000000    58.23000000
   O     -6.61000000   -20.97000000    58.24000000
   H     -3.82000000   -19.52400000    57.56000000
   H     -5.45500000   -18.83300000    57.43500000
   H     -4.66500000   -18.96900000    59.02500000
   N     -4.52000000   -21.84000000    58.24000000
   C     -4.85000000   -23.25000000    58.24000000
   C     -5.46000000   -23.75000000    59.54000000
   O     -4.74000000   -24.17000000    60.45000000
   C     -3.56000000   -23.94000000    57.81000000
   C     -3.77000000   -25.41000000    57.47000000
   O     -4.95000000   -25.76000000    57.28000000
   O     -2.80000000   -26.15000000    57.18000000
   H     -3.55000000   -21.58000000    58.12000000
   H     -5.58000000   -23.45000000    57.46000000
   H     -2.81000000   -23.85000000    58.59000000
   H     -3.22000000   -23.41000000    56.92000000
   N     -6.79000000   -23.80000000    59.67000000
   C     -7.47000000   -24.00000000    60.93000000
   C     -7.39000000   -25.36000000    61.62000000
   O     -8.33000000   -25.76000000    62.30000000
   C     -8.93000000   -23.65000000    60.67000000
   C     -9.19000000   -22.25000000    60.14000000
   C     -8.55000000   -21.10000000    60.92000000
   C     -9.05000000   -19.76000000    60.38000000
   N     -8.22000000   -18.70000000    60.98000000
   H     -7.26000000   -23.28000000    58.94000000
   H     -6.88000000   -23.29000000    61.51000000
   H     -9.39000000   -23.66000000    61.66000000
   H     -9.35000000   -24.38000000    59.98000000
   H    -10.27000000   -22.11000000    60.10000000
   H     -8.83000000   -22.13000000    59.11000000
   H     -7.49000000   -21.18000000    60.67000000
   H     -8.65000000   -21.25000000    61.99000000
   H    -10.05000000   -19.63000000    60.80000000
   H     -9.08000000   -19.90000000    59.30000000
   H     -8.13000000   -18.87000000    61.97000000
   H     -7.26000000   -18.81000000    60.69000000
   H     -8.57000000   -17.80000000    60.68000000
   N     -6.35000000   -26.16000000    61.37000000
   C     -6.04000000   -27.36000000    62.12000000
   C     -4.61000000   -27.52000000    62.61000000
   O     -4.38000000   -28.52000000    63.29000000
   C     -6.47000000   -28.52000000    61.23000000
   C     -5.83000000   -28.40000000    59.85000000
   O     -6.48000000   -28.37000000    58.79000000
   O     -4.60000000   -28.29000000    59.69000000
   H     -5.63000000   -25.69000000    60.85000000
   H     -6.60000000   -27.32000000    63.06000000
   H     -7.56000000   -28.61000000    61.17000000
   H     -6.08000000   -29.46000000    61.62000000
   N     -3.65000000   -26.68000000    62.23000000
   C     -2.33000000   -26.79000000    62.82000000
   C     -1.51000000   -27.84000000    62.08000000
   O     -0.38000000   -28.07000000    62.50000000
   H     -3.85000000   -25.86000000    61.68000000
   H     -2.37000000   -27.01000000    63.88000000
   H     -1.80000000   -25.88000000    62.52000000
   N     -1.97000000   -28.41000000    60.97000000
   C     -1.51000000   -29.63000000    60.35000000
   C     -1.27000000   -29.38000000    58.87000000
   O     -2.17000000   -29.20000000    58.06000000
   C     -2.57000000   -30.69000000    60.63000000
   C     -2.17000000   -31.99000000    59.94000000
   N     -3.01000000   -33.02000000    60.05000000
   O     -1.05000000   -32.19000000    59.49000000
   H     -2.87000000   -28.07000000    60.65000000
   H     -0.56000000   -30.00000000    60.76000000
   H     -3.58000000   -30.34000000    60.39000000
   H     -2.64000000   -30.77000000    61.71000000
   H     -4.00000000   -32.87000000    60.18000000
   H     -2.71000000   -33.94000000    59.77000000
   N      0.00000000   -29.26000000    58.46000000
   C      0.40000000   -28.80000000    57.15000000
   C      0.37000000   -29.86000000    56.05000000
   O      0.45000000   -29.59000000    54.86000000
   H      0.72000000   -29.42000000    59.15000000
   H      1.38000000   -28.33000000    57.22000000
   H     -0.36000000   -28.06000000    56.92000000
   N      0.15000000   -31.14000000    56.38000000
   C     -0.11000000   -32.20000000    55.44000000
   C     -1.26000000   -31.80000000    54.53000000
   O     -2.27000000   -31.26000000    54.99000000
   C     -0.28000000   -33.51000000    56.21000000
   C     -0.74000000   -34.70000000    55.41000000
   C     -2.11000000   -34.90000000    55.21000000
   C      0.23000000   -35.48000000    54.76000000
   C     -2.49000000   -35.99000000    54.42000000
   C     -0.16000000   -36.55000000    53.94000000
   C     -1.54000000   -36.75000000    53.71000000
   O     -2.06000000   -37.70000000    52.89000000
   H     -0.04000000   -31.37000000    57.34000000
   H      0.81000000   -32.32000000    54.86000000
   H     -0.97000000   -33.33000000    57.04000000
   H      0.61000000   -33.82000000    56.75000000
   H     -2.84000000   -34.36000000    55.81000000
   H      1.26000000   -35.17000000    54.86000000
   H     -3.53000000   -36.23000000    54.28000000
   H      0.52000000   -37.05000000    53.27000000
   H     -1.34000000   -38.33000000    52.82000000
   N     -1.11000000   -32.10000000    53.24000000
   C     -2.01000000   -31.93000000    52.12000000
   C     -3.26000000   -32.78000000    52.31000000
   O     -4.02000000   -32.70000000    53.27000000
   C     -2.32000000   -30.48000000    51.78000000
   C     -3.15000000   -30.39000000    50.50000000
   C     -1.05000000   -29.68000000    51.51000000
   C     -4.62000000   -30.18000000    50.84000000
   H     -0.13000000   -32.27000000    53.06000000
   H     -1.43000000   -32.34000000    51.29000000
   H     -2.80000000   -29.99000000    52.62000000
   H     -2.94000000   -31.19000000    49.79000000
   H     -2.97000000   -29.39000000    50.10000000
   H     -0.71000000   -30.01000000    50.53000000
   H     -1.42000000   -28.66000000    51.40000000
   H     -0.28000000   -29.83000000    52.26000000
   H     -5.19000000   -30.18000000    49.90000000
   H     -4.99000000   -31.01000000    51.45000000
   H     -4.86000000   -29.22000000    51.27000000
   N     -3.66000000   -33.52000000    51.28000000
   C     -4.69000000   -34.54000000    51.28000000
   C     -4.61000000   -35.63000000    50.22000000
   O     -5.21000000   -36.68000000    50.43000000
   C     -6.08000000   -33.91000000    51.31000000
   O     -6.34000000   -33.36000000    50.03000000
   H     -3.15000000   -33.40000000    50.41000000
   H     -4.60000000   -35.00000000    52.26000000
   H     -6.13000000   -33.17000000    52.11000000
   H     -6.90000000   -34.63000000    51.38000000
   H     -7.25000000   -33.09000000    49.97000000
   N     -3.89000000   -35.41000000    49.12000000
   C     -3.52000000   -36.39000000    48.11000000
   C     -4.64000000   -37.04000000    47.30000000
   O     -4.98000000   -38.22000000    47.44000000
   C     -2.52000000   -37.39000000    48.68000000
   H     -3.61000000   -34.45000000    48.98000000
   H     -3.00000000   -35.75000000    47.39000000
   H     -2.92000000   -38.15000000    49.34000000
   H     -2.17000000   -37.87000000    47.77000000
   H     -1.74000000   -36.88000000    49.25000000
   N     -5.34000000   -36.31000000    46.44000000
   C     -5.22000000   -34.87000000    46.30000000
   C     -4.98000000   -34.32000000    44.90000000
   O     -5.20000000   -35.03000000    43.93000000
   C     -6.46000000   -34.20000000    46.87000000
   H     -6.06000000   -36.79000000    45.92000000
   H     -4.42000000   -34.37000000    46.84000000
   H     -7.25000000   -34.24000000    46.12000000
   H     -6.83000000   -34.75000000    47.74000000
   H     -6.14000000   -33.20000000    47.17000000
   N     -4.46000000   -33.10000000    44.76000000
   C     -4.13000000   -32.10000000    45.75000000
   C     -2.75000000   -31.52000000    45.52000000
   O     -2.11000000   -31.09000000    46.48000000
   C     -5.24000000   -31.05000000    45.70000000
   C     -5.21000000   -29.99000000    46.80000000
   C     -6.43000000   -29.09000000    46.91000000
   O     -6.58000000   -28.22000000    46.03000000
   O     -7.27000000   -29.26000000    47.82000000
   H     -4.32000000   -32.83000000    43.79000000
   H     -4.11000000   -32.48000000    46.78000000
   H     -6.18000000   -31.62000000    45.74000000
   H     -5.27000000   -30.54000000    44.73000000
   H     -4.33000000   -29.37000000    46.63000000
   H     -4.95000000   -30.60000000    47.67000000
   N     -2.29000000   -31.19000000    44.30000000
   C     -1.16000000   -30.35000000    43.97000000
   H     -0.30800000   -30.97600000    43.70400000
   H     -1.41700000   -29.70900000    43.12700000
   H     -0.90200000   -29.73300000    44.83100000
   H     -2.92000000   -31.42000000    43.55000000
  Ca     -4.39600000   -28.26600000    57.11000000
   O     -4.83600000   -30.22600000    54.99000000
   H     -5.62600000   -30.65600000    54.67000000
   H     -4.12600000   -30.81600000    54.74000000
   O     -4.76600000   -30.86600000    57.66000000
   H     -4.95600000   -31.39600000    56.89000000
   H     -4.95600000   -31.44600000    58.40000000
   O     -5.45600000   -27.35600000    54.94000000
   H     -5.97600000   -27.91600000    54.36000000
   H     -5.18600000   -26.62600000    54.40000000
   O     -2.51600000   -28.59600000    55.28000000
   H     -1.98600000   -28.26600000    54.55000000
   H     -2.59600000   -29.53600000    55.12000000

Ca 1.00



