%chk=loop2.holoCaM.run49.water2.chk
%nprocshared=20
%mem=10GB
%nosave
#b3lyp/svp scf=(tight,noincore,xqc) Test 
#IOP(5/87=12) Density=Current Pop=(MK,readradii) iop(6/33=2) iop(6/42=6)

loop2.holoCaM.run49.water2 

   -2  1 
   C     68.70000000    71.72000000    11.78000000
   C     67.46000000    72.14000000    12.57000000
   O     67.66000000    72.81000000    13.58000000
   H     69.54000000    71.59400000    12.46300000
   H     68.50400000    70.77800000    11.26900000
   H     68.94200000    72.48900000    11.04600000
   N     66.25000000    71.80000000    12.13000000
   C     64.98000000    72.24000000    12.68000000
   C     64.83000000    71.80000000    14.13000000
   O     65.02000000    70.64000000    14.50000000
   C     63.87000000    71.71000000    11.78000000
   C     62.49000000    71.72000000    12.41000000
   O     61.82000000    70.68000000    12.24000000
   O     62.06000000    72.73000000    13.01000000
   H     66.20000000    71.23000000    11.30000000
   H     64.89000000    73.33000000    12.73000000
   H     64.15000000    70.75000000    11.36000000
   H     63.89000000    72.40000000    10.93000000
   N     64.38000000    72.78000000    14.91000000
   C     64.35000000    72.64000000    16.36000000
   C     63.17000000    71.83000000    16.88000000
   O     63.15000000    71.22000000    17.94000000
   C     64.36000000    74.00000000    17.05000000
   H     64.15000000    73.68000000    14.54000000
   H     65.26000000    72.14000000    16.69000000
   H     65.04000000    74.74000000    16.64000000
   H     63.38000000    74.47000000    16.99000000
   H     64.63000000    73.91000000    18.10000000
   N     62.04000000    71.94000000    16.18000000
   C     60.80000000    71.26000000    16.48000000
   C     60.62000000    69.82000000    16.03000000
   O     59.67000000    69.11000000    16.35000000
   C     59.70000000    72.09000000    15.82000000
   C     59.74000000    73.59000000    16.07000000
   O     60.34000000    74.32000000    15.24000000
   O     59.32000000    74.04000000    17.16000000
   H     62.10000000    72.54000000    15.36000000
   H     60.69000000    71.30000000    17.56000000
   H     58.74000000    71.78000000    16.24000000
   H     59.69000000    72.01000000    14.73000000
   N     61.43000000    69.36000000    15.07000000
   C     61.26000000    68.12000000    14.33000000
   C     60.21000000    68.15000000    13.23000000
   O     59.94000000    67.07000000    12.70000000
   H     62.22000000    69.94000000    14.84000000
   H     60.86000000    67.38000000    15.01000000
   H     62.22000000    67.88000000    13.87000000
   N     59.54000000    69.27000000    12.96000000
   C     58.37000000    69.32000000    12.10000000
   C     58.72000000    69.16000000    10.63000000
   O     58.02000000    68.49000000     9.87000000
   C     57.78000000    70.70000000    12.37000000
   C     56.40000000    70.68000000    11.73000000
   N     55.49000000    69.77000000    12.09000000
   O     56.07000000    71.52000000    10.89000000
   H     59.67000000    70.02000000    13.62000000
   H     57.75000000    68.47000000    12.40000000
   H     58.30000000    71.47000000    11.81000000
   H     57.68000000    70.97000000    13.42000000
   H     55.54000000    69.14000000    12.88000000
   H     54.68000000    69.67000000    11.50000000
   N     59.82000000    69.72000000    10.13000000
   C     60.19000000    69.91000000     8.74000000
   C     59.80000000    71.28000000     8.21000000
   O     59.49000000    71.37000000     7.02000000
   H     60.48000000    70.05000000    10.82000000
   H     59.76000000    69.14000000     8.10000000
   H     61.26000000    69.71000000     8.64000000
   N     59.90000000    72.33000000     9.03000000
   C     59.68000000    73.69000000     8.58000000
   C     60.71000000    74.64000000     9.18000000
   O     61.02000000    74.56000000    10.37000000
   C     58.24000000    74.17000000     8.79000000
   C     57.17000000    73.55000000     7.89000000
   O     57.91000000    74.12000000    10.16000000
   H     60.06000000    72.20000000    10.02000000
   H     59.79000000    73.63000000     7.50000000
   H     58.34000000    75.24000000     8.66000000
   H     56.95000000    74.12000000    10.16000000
   H     57.15000000    74.04000000     6.92000000
   H     57.31000000    72.47000000     7.82000000
   H     56.22000000    73.64000000     8.42000000
   N     61.12000000    75.71000000     8.50000000
   C     62.27000000    76.53000000     8.84000000
   C     61.76000000    77.89000000     9.30000000
   O     61.30000000    78.70000000     8.50000000
   C     63.26000000    76.61000000     7.69000000
   C     63.97000000    75.26000000     7.61000000
   C     64.31000000    77.72000000     7.70000000
   C     65.03000000    74.88000000     8.64000000
   H     60.72000000    75.83000000     7.58000000
   H     62.74000000    76.05000000     9.70000000
   H     62.83000000    76.82000000     6.71000000
   H     64.40000000    75.11000000     6.62000000
   H     63.20000000    74.49000000     7.61000000
   H     64.98000000    77.67000000     8.56000000
   H     64.98000000    77.74000000     6.85000000
   H     63.80000000    78.68000000     7.71000000
   H     65.98000000    75.40000000     8.51000000
   H     64.69000000    74.86000000     9.68000000
   H     65.32000000    73.84000000     8.54000000
   N     61.97000000    78.16000000    10.59000000
   C     62.14000000    79.48000000    11.17000000
   C     63.37000000    80.25000000    10.69000000
   O     64.34000000    79.65000000    10.24000000
   C     62.04000000    79.35000000    12.68000000
   C     60.76000000    78.66000000    13.12000000
   O     60.82000000    77.70000000    13.91000000
   O     59.70000000    78.92000000    12.51000000
   H     62.50000000    77.42000000    11.03000000
   H     61.30000000    80.08000000    10.82000000
   H     62.04000000    80.28000000    13.25000000
   H     62.95000000    78.86000000    13.03000000
   N     63.41000000    81.58000000    10.83000000
   C     64.57000000    82.39000000    10.50000000
   C     65.89000000    82.06000000    11.18000000
   O     66.86000000    81.85000000    10.46000000
   C     64.24000000    83.85000000    10.76000000
   C     65.34000000    84.88000000    10.93000000
   C     66.32000000    84.97000000     9.93000000
   C     65.45000000    85.69000000    12.07000000
   C     67.35000000    85.90000000    10.11000000
   C     66.54000000    86.55000000    12.27000000
   C     67.56000000    86.57000000    11.32000000
   H     62.52000000    82.03000000    11.01000000
   H     64.66000000    82.18000000     9.43000000
   H     63.55000000    83.97000000    11.60000000
   H     63.58000000    84.23000000     9.99000000
   H     66.29000000    84.39000000     9.02000000
   H     64.73000000    85.58000000    12.86000000
   H     68.11000000    85.87000000     9.34000000
   H     66.62000000    87.15000000    13.17000000
   H     68.46000000    87.12000000    11.55000000
   N     65.98000000    81.80000000    12.48000000
   C     67.23000000    81.46000000    13.14000000
   C     67.68000000    80.03000000    12.88000000
   O     68.87000000    79.72000000    12.91000000
   C     67.04000000    81.77000000    14.62000000
   C     65.78000000    82.63000000    14.61000000
   C     64.97000000    81.95000000    13.51000000
   H     67.98000000    82.16000000    12.78000000
   H     66.83000000    80.88000000    15.21000000
   H     67.92000000    82.27000000    15.03000000
   H     65.23000000    82.73000000    15.55000000
   H     66.13000000    83.62000000    14.29000000
   H     64.60000000    80.97000000    13.82000000
   H     64.16000000    82.59000000    13.18000000
   N     66.82000000    79.10000000    12.46000000
   C     67.09000000    77.80000000    11.88000000
   C     67.66000000    77.85000000    10.48000000
   O     68.43000000    76.97000000    10.09000000
   C     65.81000000    76.96000000    11.97000000
   C     65.18000000    76.84000000    13.35000000
   C     63.87000000    76.09000000    13.19000000
   O     63.18000000    76.15000000    12.15000000
   O     63.35000000    75.42000000    14.10000000
   H     65.85000000    79.40000000    12.47000000
   H     67.87000000    77.35000000    12.49000000
   H     65.98000000    75.93000000    11.63000000
   H     65.05000000    77.41000000    11.34000000
   H     64.94000000    77.79000000    13.83000000
   H     65.86000000    76.25000000    13.96000000
   N     67.37000000    78.91000000     9.73000000
   C     67.95000000    79.27000000     8.44000000
   H     68.96700000    78.88200000     8.37800000
   H     67.34900000    78.84100000     7.63800000
   H     67.96900000    80.35500000     8.34000000
   H     66.73000000    79.62000000    10.06000000
  Ca     60.99000000    75.07000000    12.93000000
   O     59.18000000    76.51000000    11.66000000
   H     59.24000000    77.43000000    11.89000000
   H     58.43000000    76.45000000    11.07000000
   O     58.78000000    73.74000000    12.89000000
   H     58.18000000    74.02000000    12.20000000
   H     58.22000000    73.39000000    13.58000000

Ca 1.00



