%chk=loop1.apoCaM-CA-Ng.Init31.run94.water4.chk
%nprocshared=20
%mem=10GB
%nosave
#b3lyp/svp scf=(tight,noincore,xqc) Test 
#IOP(5/87=12) Density=Current Pop=(MK,readradii) iop(6/33=2) iop(6/42=6)

loop1.apoCaM-CA-Ng.Init31.run94.water4 

   0  1 
   C     27.25000000    44.26000000    60.42000000
   C     26.02000000    43.90000000    59.59000000
   O     25.06000000    44.67000000    59.47000000
   H     28.03700000    44.62700000    59.76200000
   H     26.98900000    45.03500000    61.14000000
   H     27.60300000    43.37500000    60.95000000
   N     26.04000000    42.69000000    59.03000000
   C     24.97000000    42.16000000    58.21000000
   C     24.33000000    40.89000000    58.74000000
   O     24.79000000    40.24000000    59.68000000
   C     25.43000000    41.94000000    56.77000000
   C     24.36000000    42.03000000    55.69000000
   O     23.17000000    42.25000000    56.02000000
   O     24.57000000    41.83000000    54.48000000
   H     26.70000000    41.96000000    59.24000000
   H     24.16000000    42.88000000    58.09000000
   H     26.08000000    41.06000000    56.72000000
   H     26.10000000    42.77000000    56.54000000
   N     23.21000000    40.43000000    58.20000000
   C     22.48000000    39.23000000    58.57000000
   C     23.24000000    37.93000000    58.35000000
   O     23.04000000    37.11000000    59.24000000
   C     21.09000000    39.15000000    57.94000000
   C     19.99000000    40.13000000    58.34000000
   C     19.93000000    40.60000000    59.79000000
   C     18.95000000    41.77000000    59.87000000
   N     19.70000000    43.03000000    59.86000000
   H     22.79000000    41.03000000    57.50000000
   H     22.25000000    39.23000000    59.64000000
   H     20.70000000    38.13000000    57.90000000
   H     21.24000000    39.42000000    56.90000000
   H     19.01000000    39.72000000    58.12000000
   H     20.26000000    40.98000000    57.71000000
   H     20.92000000    41.00000000    59.99000000
   H     19.64000000    39.74000000    60.40000000
   H     18.24000000    41.65000000    60.69000000
   H     18.31000000    41.69000000    58.99000000
   H     19.05000000    43.78000000    59.68000000
   H     20.16000000    43.24000000    60.74000000
   H     20.37000000    42.91000000    59.11000000
   N     24.03000000    37.64000000    57.32000000
   C     24.03000000    38.27000000    56.01000000
   C     25.32000000    38.10000000    55.22000000
   O     26.17000000    37.24000000    55.42000000
   C     22.91000000    37.64000000    55.19000000
   C     22.32000000    38.51000000    54.09000000
   O     22.52000000    39.74000000    54.07000000
   O     21.67000000    37.92000000    53.19000000
   H     24.55000000    36.79000000    57.49000000
   H     23.93000000    39.35000000    56.13000000
   H     22.04000000    37.38000000    55.79000000
   H     23.14000000    36.62000000    54.85000000
   N     25.47000000    38.95000000    54.20000000
   C     26.59000000    38.80000000    53.29000000
   C     26.82000000    40.06000000    52.47000000
   O     27.68000000    40.85000000    52.86000000
   H     24.86000000    39.74000000    54.05000000
   H     26.37000000    38.05000000    52.52000000
   H     27.57000000    38.55000000    53.68000000
   N     26.16000000    40.12000000    51.31000000
   C     26.37000000    41.03000000    50.21000000
   C     27.08000000    40.29000000    49.09000000
   O     26.80000000    39.10000000    48.90000000
   C     25.05000000    41.63000000    49.73000000
   C     23.94000000    41.85000000    50.75000000
   O     24.13000000    42.68000000    51.67000000
   O     22.93000000    41.12000000    50.83000000
   H     25.47000000    39.42000000    51.07000000
   H     26.97000000    41.88000000    50.52000000
   H     24.65000000    41.13000000    48.84000000
   H     25.27000000    42.64000000    49.39000000
   N     27.84000000    40.90000000    48.18000000
   C     28.07000000    42.33000000    48.04000000
   C     27.01000000    43.04000000    47.22000000
   O     26.73000000    44.23000000    47.38000000
   H     28.30000000    40.31000000    47.51000000
   H     29.03000000    42.46000000    47.54000000
   H     28.21000000    42.85000000    48.99000000
   N     26.36000000    42.30000000    46.31000000
   C     25.66000000    42.83000000    45.16000000
   C     26.53000000    43.90000000    44.52000000
   O     26.00000000    44.98000000    44.24000000
   C     24.24000000    43.28000000    45.47000000
   C     23.48000000    42.13000000    46.13000000
   O     23.49000000    43.64000000    44.33000000
   H     26.73000000    41.37000000    46.16000000
   H     25.57000000    42.04000000    44.42000000
   H     24.23000000    44.19000000    46.08000000
   H     23.85000000    44.47000000    44.01000000
   H     23.48000000    41.30000000    45.43000000
   H     24.03000000    41.73000000    46.98000000
   H     22.50000000    42.58000000    46.31000000
   N     27.75000000    43.56000000    44.08000000
   C     28.71000000    44.34000000    43.34000000
   C     28.24000000    44.70000000    41.94000000
   O     28.93000000    44.35000000    40.99000000
   C     29.32000000    45.54000000    44.06000000
   C     29.63000000    45.33000000    45.54000000
   C     30.54000000    46.09000000    43.32000000
   C     30.50000000    44.10000000    45.79000000
   H     27.99000000    42.60000000    44.24000000
   H     29.54000000    43.64000000    43.22000000
   H     28.59000000    46.34000000    43.93000000
   H     28.73000000    45.13000000    46.12000000
   H     30.13000000    46.19000000    45.98000000
   H     30.19000000    46.71000000    42.49000000
   H     31.21000000    46.66000000    43.96000000
   H     31.10000000    45.20000000    43.02000000
   H     30.57000000    43.91000000    46.86000000
   H     30.08000000    43.24000000    45.27000000
   H     31.49000000    44.32000000    45.40000000
   N     27.15000000    45.43000000    41.69000000
   C     26.66000000    45.73000000    40.35000000
   C     26.14000000    47.15000000    40.25000000
   O     26.00000000    47.83000000    41.27000000
   C     25.56000000    44.78000000    39.89000000
   C     24.30000000    44.83000000    40.75000000
   O     26.01000000    43.44000000    39.88000000
   H     26.60000000    45.75000000    42.48000000
   H     27.47000000    45.71000000    39.62000000
   H     25.28000000    45.08000000    38.87000000
   H     26.91000000    43.37000000    39.57000000
   H     24.53000000    44.79000000    41.81000000
   H     23.77000000    45.77000000    40.64000000
   H     23.65000000    44.00000000    40.48000000
   N     25.80000000    47.60000000    39.04000000
   C     25.31000000    48.94000000    38.78000000
   C     23.91000000    49.23000000    39.30000000
   O     23.06000000    48.35000000    39.24000000
   C     25.29000000    49.36000000    37.32000000
   C     26.72000000    49.47000000    36.81000000
   O     24.59000000    48.41000000    36.55000000
   H     25.75000000    46.90000000    38.32000000
   H     25.95000000    49.65000000    39.31000000
   H     24.75000000    50.31000000    37.28000000
   H     25.04000000    47.56000000    36.57000000
   H     26.73000000    49.56000000    35.73000000
   H     27.32000000    50.27000000    37.26000000
   H     27.20000000    48.51000000    37.02000000
   N     23.75000000    50.39000000    39.94000000
   C     22.49000000    50.80000000    40.53000000
   C     21.92000000    49.86000000    41.58000000
   O     20.76000000    49.44000000    41.54000000
   C     21.53000000    51.13000000    39.40000000
   C     20.47000000    52.15000000    39.81000000
   C     19.53000000    52.48000000    38.65000000
   C     18.72000000    51.34000000    38.05000000
   N     18.08000000    51.54000000    36.74000000
   H     24.50000000    51.05000000    40.12000000
   H     22.65000000    51.72000000    41.10000000
   H     21.16000000    50.18000000    39.01000000
   H     22.11000000    51.49000000    38.54000000
   H     20.86000000    53.08000000    40.23000000
   H     19.79000000    51.70000000    40.54000000
   H     20.11000000    52.98000000    37.88000000
   H     18.84000000    53.22000000    39.05000000
   H     18.08000000    50.89000000    38.81000000
   H     19.43000000    50.51000000    37.96000000
   H     18.74000000    51.37000000    35.99000000
   H     17.31000000    50.89000000    36.70000000
   H     17.67000000    52.45000000    36.59000000
   N     22.83000000    49.45000000    42.46000000
   C     22.64000000    48.61000000    43.62000000
   C     23.72000000    47.63000000    44.05000000
   O     23.42000000    46.45000000    44.25000000
   C     21.93000000    49.40000000    44.71000000
   C     21.64000000    48.63000000    45.99000000
   C     20.64000000    49.32000000    46.90000000
   O     19.43000000    49.12000000    46.68000000
   O     21.12000000    50.04000000    47.81000000
   H     23.79000000    49.74000000    42.29000000
   H     21.85000000    47.92000000    43.30000000
   H     21.00000000    49.80000000    44.32000000
   H     22.53000000    50.25000000    45.04000000
   H     22.51000000    48.39000000    46.61000000
   H     21.24000000    47.66000000    45.72000000
   N     24.98000000    47.95000000    44.35000000
   C     25.63000000    49.25000000    44.38000000
   H     26.58700000    49.18900000    43.86200000
   H     24.99600000    49.98500000    43.88500000
   H     25.79600000    49.55000000    45.41500000
   H     25.56000000    47.17000000    44.62000000
  Ca     22.32000000    42.11000000    53.35000000
   O     20.24000000    40.18000000    52.71000000
   H     20.72000000    39.39000000    52.95000000
   H     19.39000000    40.09000000    53.13000000
   O     22.35000000    44.67000000    53.40000000
   H     22.75000000    45.15000000    52.68000000
   H     22.26000000    45.33000000    54.10000000
   O     21.03000000    43.16000000    51.34000000
   H     20.79000000    44.02000000    51.01000000
   H     20.56000000    42.54000000    50.79000000
   O     19.85000000    42.87000000    54.11000000
   H     19.13000000    42.48000000    54.60000000
   H     19.42000000    43.46000000    53.49000000

Ca 1.00



