%chk=loop1.holoCaM.run75.water2.chk
%nprocshared=20
%mem=10GB
%nosave
#b3lyp/svp scf=(tight,noincore,xqc) Test 
#IOP(5/87=12) Density=Current Pop=(MK,readradii) iop(6/33=2) iop(6/42=6)

loop1.holoCaM.run75.water2 

   0  1 
   C     34.39000000    56.69000000    14.32000000
   C     33.58000000    55.46000000    14.70000000
   O     33.36000000    54.60000000    13.85000000
   H     35.35200000    56.37900000    13.91100000
   H     33.84700000    57.26600000    13.57100000
   H     34.55400000    57.30600000    15.20500000
   N     33.08000000    55.40000000    15.94000000
   C     32.15000000    54.38000000    16.37000000
   C     30.79000000    54.69000000    15.76000000
   O     30.17000000    55.69000000    16.12000000
   C     32.13000000    54.48000000    17.89000000
   C     31.38000000    53.29000000    18.47000000
   O     31.32000000    53.29000000    19.72000000
   O     30.67000000    52.58000000    17.72000000
   H     33.35000000    56.14000000    16.58000000
   H     32.49000000    53.42000000    15.99000000
   H     31.60000000    55.39000000    18.18000000
   H     33.12000000    54.58000000    18.33000000
   N     30.29000000    53.86000000    14.84000000
   C     29.05000000    54.11000000    14.13000000
   C     27.84000000    53.55000000    14.86000000
   O     26.75000000    53.60000000    14.29000000
   C     29.27000000    53.72000000    12.67000000
   C     30.45000000    54.41000000    11.97000000
   C     30.45000000    55.93000000    12.09000000
   C     31.51000000    56.70000000    11.30000000
   N     31.39000000    58.16000000    11.40000000
   H     30.88000000    53.06000000    14.70000000
   H     28.65000000    55.12000000    14.16000000
   H     28.37000000    54.07000000    12.16000000
   H     29.34000000    52.64000000    12.61000000
   H     30.38000000    54.11000000    10.93000000
   H     31.35000000    53.93000000    12.35000000
   H     30.46000000    56.25000000    13.13000000
   H     29.49000000    56.18000000    11.63000000
   H     31.48000000    56.43000000    10.25000000
   H     32.47000000    56.49000000    11.77000000
   H     32.32000000    58.53000000    11.25000000
   H     30.68000000    58.62000000    10.86000000
   H     31.23000000    58.38000000    12.38000000
   N     28.06000000    52.92000000    16.02000000
   C     26.94000000    52.32000000    16.71000000
   C     26.95000000    52.44000000    18.23000000
   O     26.11000000    51.98000000    19.00000000
   C     26.78000000    50.85000000    16.32000000
   C     28.01000000    49.98000000    16.18000000
   O     28.03000000    49.00000000    15.41000000
   O     28.99000000    50.25000000    16.91000000
   H     28.99000000    52.78000000    16.40000000
   H     26.06000000    52.86000000    16.35000000
   H     26.33000000    50.86000000    15.33000000
   H     26.10000000    50.33000000    17.00000000
   N     27.96000000    53.12000000    18.77000000
   C     27.98000000    53.74000000    20.08000000
   C     28.28000000    52.73000000    21.18000000
   O     27.99000000    52.97000000    22.35000000
   H     28.76000000    53.18000000    18.16000000
   H     26.99000000    54.17000000    20.13000000
   H     28.68000000    54.58000000    20.09000000
   N     28.89000000    51.62000000    20.76000000
   C     29.29000000    50.52000000    21.62000000
   C     30.52000000    50.79000000    22.47000000
   O     30.63000000    50.13000000    23.50000000
   C     29.37000000    49.30000000    20.70000000
   C     30.45000000    49.29000000    19.63000000
   O     30.44000000    48.42000000    18.74000000
   O     31.36000000    50.15000000    19.72000000
   H     29.22000000    51.69000000    19.81000000
   H     28.52000000    50.29000000    22.35000000
   H     28.40000000    49.16000000    20.23000000
   H     29.53000000    48.43000000    21.34000000
   N     31.31000000    51.84000000    22.22000000
   C     32.52000000    52.17000000    22.95000000
   C     33.72000000    51.49000000    22.30000000
   O     34.75000000    51.41000000    22.97000000
   H     31.11000000    52.34000000    21.36000000
   H     32.35000000    52.02000000    24.01000000
   H     32.75000000    53.23000000    22.90000000
   N     33.63000000    51.08000000    21.04000000
   C     34.67000000    50.41000000    20.29000000
   C     34.69000000    50.74000000    18.81000000
   O     33.75000000    51.27000000    18.22000000
   C     34.64000000    48.89000000    20.43000000
   C     35.22000000    48.46000000    21.77000000
   O     33.30000000    48.47000000    20.30000000
   H     32.72000000    51.20000000    20.61000000
   H     35.63000000    50.84000000    20.58000000
   H     35.30000000    48.51000000    19.66000000
   H     32.74000000    49.25000000    20.22000000
   H     34.77000000    49.07000000    22.56000000
   H     35.14000000    47.39000000    21.91000000
   H     36.29000000    48.66000000    21.75000000
   N     35.78000000    50.35000000    18.15000000
   C     36.16000000    50.57000000    16.77000000
   C     36.60000000    49.19000000    16.29000000
   O     37.50000000    48.62000000    16.91000000
   C     37.25000000    51.64000000    16.66000000
   C     36.68000000    53.01000000    17.02000000
   C     37.92000000    51.56000000    15.30000000
   C     37.24000000    54.30000000    16.44000000
   H     36.59000000    50.05000000    18.69000000
   H     35.35000000    50.86000000    16.11000000
   H     37.95000000    51.31000000    17.43000000
   H     36.70000000    53.11000000    18.10000000
   H     35.60000000    53.00000000    16.85000000
   H     38.84000000    52.15000000    15.27000000
   H     38.37000000    50.61000000    15.00000000
   H     37.28000000    52.01000000    14.55000000
   H     38.30000000    54.39000000    16.66000000
   H     37.28000000    54.27000000    15.35000000
   H     36.69000000    55.19000000    16.74000000
   N     36.09000000    48.78000000    15.13000000
   C     36.41000000    47.52000000    14.50000000
   C     36.85000000    47.71000000    13.05000000
   O     36.80000000    48.87000000    12.65000000
   C     35.28000000    46.52000000    14.72000000
   C     34.07000000    46.89000000    13.87000000
   O     35.69000000    45.27000000    14.21000000
   H     35.29000000    49.30000000    14.79000000
   H     37.35000000    47.16000000    14.91000000
   H     35.02000000    46.48000000    15.78000000
   H     34.91000000    44.72000000    14.25000000
   H     34.35000000    47.12000000    12.84000000
   H     33.32000000    46.10000000    13.83000000
   H     33.62000000    47.77000000    14.31000000
   N     37.15000000    46.67000000    12.27000000
   C     37.56000000    46.76000000    10.88000000
   C     36.78000000    47.70000000     9.97000000
   O     37.26000000    48.63000000     9.33000000
   C     37.43000000    45.35000000    10.29000000
   C     38.41000000    44.39000000    10.95000000
   O     36.09000000    44.90000000    10.33000000
   H     37.11000000    45.76000000    12.70000000
   H     38.62000000    47.00000000    10.94000000
   H     37.73000000    45.49000000     9.25000000
   H     36.09000000    44.02000000     9.93000000
   H     38.31000000    43.40000000    10.51000000
   H     39.40000000    44.75000000    10.70000000
   H     38.14000000    44.33000000    12.01000000
   N     35.46000000    47.53000000    10.04000000
   C     34.44000000    48.23000000     9.29000000
   C     34.36000000    49.67000000     9.77000000
   O     33.52000000    50.44000000     9.30000000
   C     33.10000000    47.50000000     9.41000000
   C     33.00000000    46.10000000     8.80000000
   C     31.64000000    45.40000000     8.83000000
   C     30.43000000    46.31000000     8.61000000
   N     29.14000000    45.61000000     8.70000000
   H     35.14000000    46.63000000    10.37000000
   H     34.76000000    48.22000000     8.25000000
   H     32.44000000    48.16000000     8.85000000
   H     32.68000000    47.46000000    10.41000000
   H     33.65000000    45.46000000     9.39000000
   H     33.25000000    46.09000000     7.74000000
   H     31.49000000    44.88000000     9.77000000
   H     31.52000000    44.69000000     8.01000000
   H     30.45000000    46.76000000     7.61000000
   H     30.41000000    47.10000000     9.36000000
   H     28.35000000    46.22000000     8.57000000
   H     29.00000000    44.76000000     8.16000000
   H     29.12000000    45.26000000     9.64000000
   N     35.13000000    50.14000000    10.76000000
   C     34.99000000    51.47000000    11.32000000
   C     36.33000000    52.20000000    11.38000000
   O     36.39000000    53.42000000    11.37000000
   C     34.46000000    51.32000000    12.74000000
   C     32.99000000    50.90000000    12.77000000
   C     32.47000000    50.75000000    14.20000000
   O     33.19000000    50.28000000    15.11000000
   O     31.39000000    51.28000000    14.54000000
   H     35.75000000    49.50000000    11.24000000
   H     34.30000000    52.04000000    10.70000000
   H     34.54000000    52.29000000    13.22000000
   H     35.09000000    50.64000000    13.30000000
   H     32.90000000    49.94000000    12.27000000
   H     32.35000000    51.59000000    12.22000000
   N     37.45000000    51.48000000    11.36000000
   C     38.79000000    52.03000000    11.41000000
   H     39.46200000    51.40200000    10.82400000
   H     38.78500000    53.03900000    10.99800000
   H     39.13200000    52.06100000    12.44400000
   H     37.46000000    50.47000000    11.32000000
  Ca     31.54000000    50.32000000    17.07000000
   O     33.17000000    47.88000000    17.55000000
   H     33.08000000    47.68000000    18.48000000
   H     32.82000000    47.11000000    17.10000000
   O     30.76000000    48.15000000    15.77000000
   H     29.83000000    48.34000000    15.64000000
   H     30.80000000    47.21000000    15.93000000

Ca 1.00



