%chk=loop4.holoCaM.run6.water1.chk
%nprocshared=20
%mem=10GB
%nosave
#b3lyp/svp scf=(tight,noincore,xqc) Test 
#IOP(5/87=12) Density=Current Pop=(MK,readradii) iop(6/33=2) iop(6/42=6)

loop4.holoCaM.run6.water1 

   -3  1 
   C     32.47000000    24.07000000    42.55000000
   C     33.48000000    23.48000000    43.52000000
   O     34.39000000    22.84000000    43.00000000
   H     31.60000000    24.42500000    43.10300000
   H     32.92400000    24.90400000    42.01400000
   H     32.16000000    23.30500000    41.83800000
   N     33.28000000    23.48000000    44.84000000
   C     34.20000000    22.92000000    45.81000000
   C     33.95000000    21.46000000    46.18000000
   O     32.86000000    21.08000000    46.58000000
   C     34.22000000    23.84000000    47.03000000
   C     35.16000000    23.19000000    48.04000000
   O     36.27000000    22.71000000    47.74000000
   O     34.75000000    23.01000000    49.21000000
   H     32.61000000    24.15000000    45.20000000
   H     35.21000000    23.03000000    45.41000000
   H     33.19000000    23.89000000    47.36000000
   H     34.56000000    24.82000000    46.70000000
   N     35.05000000    20.69000000    46.09000000
   C     35.02000000    19.25000000    46.17000000
   C     36.07000000    18.76000000    47.15000000
   O     36.31000000    17.55000000    47.13000000
   C     35.10000000    18.69000000    44.75000000
   C     36.46000000    19.02000000    44.14000000
   C     33.92000000    19.17000000    43.90000000
   C     36.66000000    18.21000000    42.86000000
   H     35.84000000    21.06000000    45.59000000
   H     34.05000000    19.00000000    46.60000000
   H     35.02000000    17.61000000    44.69000000
   H     37.13000000    18.77000000    44.96000000
   H     36.56000000    20.08000000    43.92000000
   H     34.11000000    20.13000000    43.42000000
   H     33.79000000    18.41000000    43.12000000
   H     33.03000000    19.03000000    44.51000000
   H     36.40000000    17.20000000    43.15000000
   H     35.92000000    18.50000000    42.11000000
   H     37.66000000    18.34000000    42.46000000
   N     36.73000000    19.56000000    48.00000000
   C     37.57000000    19.10000000    49.08000000
   C     37.08000000    19.46000000    50.47000000
   O     37.42000000    18.75000000    51.41000000
   C     39.03000000    19.54000000    48.90000000
   C     39.10000000    21.01000000    48.55000000
   O     39.51000000    21.33000000    47.41000000
   O     38.96000000    21.97000000    49.34000000
   H     36.60000000    20.56000000    48.01000000
   H     37.57000000    18.01000000    49.15000000
   H     39.42000000    18.89000000    48.12000000
   H     39.49000000    19.34000000    49.87000000
   N     36.30000000    20.53000000    50.65000000
   C     35.72000000    20.86000000    51.94000000
   C     36.18000000    22.21000000    52.46000000
   O     36.57000000    22.25000000    53.63000000
   H     35.97000000    21.05000000    49.84000000
   H     35.76000000    20.10000000    52.72000000
   H     34.65000000    21.03000000    51.85000000
   N     36.21000000    23.25000000    51.63000000
   C     36.45000000    24.59000000    52.14000000
   C     35.53000000    25.68000000    51.61000000
   O     35.56000000    26.78000000    52.16000000
   C     37.89000000    25.05000000    51.94000000
   C     38.35000000    25.34000000    50.52000000
   O     37.65000000    24.97000000    49.55000000
   O     39.51000000    25.79000000    50.42000000
   H     36.08000000    23.11000000    50.64000000
   H     36.21000000    24.74000000    53.19000000
   H     38.63000000    24.40000000    52.40000000
   H     37.90000000    26.00000000    52.47000000
   N     34.66000000    25.41000000    50.63000000
   C     33.87000000    26.43000000    49.98000000
   C     34.74000000    27.43000000    49.22000000
   O     34.33000000    28.57000000    49.06000000
   H     34.53000000    24.46000000    50.31000000
   H     33.35000000    26.94000000    50.79000000
   H     33.14000000    25.92000000    49.35000000
   N     35.89000000    26.99000000    48.71000000
   C     36.66000000    27.81000000    47.80000000
   C     37.06000000    27.09000000    46.52000000
   O     37.21000000    25.87000000    46.57000000
   C     37.98000000    28.31000000    48.38000000
   C     37.98000000    28.95000000    49.77000000
   C     39.39000000    29.39000000    50.15000000
   N     40.33000000    28.45000000    50.17000000
   O     39.69000000    30.57000000    50.37000000
   H     36.31000000    26.10000000    48.96000000
   H     36.05000000    28.68000000    47.52000000
   H     38.49000000    28.95000000    47.66000000
   H     38.59000000    27.41000000    48.48000000
   H     37.60000000    28.25000000    50.51000000
   H     37.31000000    29.81000000    49.82000000
   H     40.00000000    27.50000000    50.16000000
   H     41.31000000    28.68000000    50.24000000
   N     37.43000000    27.79000000    45.45000000
   C     37.97000000    27.18000000    44.25000000
   C     39.45000000    27.52000000    44.10000000
   O     39.83000000    28.69000000    44.08000000
   C     37.19000000    27.62000000    43.01000000
   C     35.80000000    27.00000000    42.93000000
   C     36.92000000    29.11000000    42.83000000
   H     37.45000000    28.80000000    45.51000000
   H     37.91000000    26.10000000    44.33000000
   H     37.68000000    27.30000000    42.09000000
   H     35.39000000    27.11000000    41.93000000
   H     35.81000000    25.92000000    43.07000000
   H     35.17000000    27.45000000    43.70000000
   H     37.88000000    29.61000000    42.71000000
   H     36.27000000    29.32000000    41.99000000
   H     36.37000000    29.53000000    43.67000000
   N     40.28000000    26.49000000    43.93000000
   C     41.54000000    26.60000000    43.23000000
   C     41.40000000    26.60000000    41.71000000
   O     40.27000000    26.42000000    41.26000000
   C     42.55000000    25.61000000    43.82000000
   C     42.76000000    24.25000000    43.17000000
   N     42.26000000    23.13000000    43.68000000
   O     43.46000000    24.23000000    42.16000000
   H     39.87000000    25.57000000    43.97000000
   H     41.84000000    27.64000000    43.37000000
   H     42.46000000    25.49000000    44.90000000
   H     43.48000000    26.18000000    43.71000000
   H     41.81000000    23.15000000    44.58000000
   H     42.56000000    22.29000000    43.19000000
   N     42.48000000    26.86000000    40.98000000
   C     42.47000000    26.85000000    39.53000000
   C     41.94000000    25.54000000    38.96000000
   O     41.13000000    25.59000000    38.03000000
   C     43.88000000    27.16000000    39.04000000
   C     44.14000000    26.97000000    37.56000000
   C     43.79000000    27.90000000    36.58000000
   C     44.70000000    25.74000000    37.20000000
   C     44.15000000    27.66000000    35.25000000
   C     45.04000000    25.44000000    35.87000000
   C     44.66000000    26.39000000    34.91000000
   O     44.98000000    26.12000000    33.61000000
   H     43.24000000    27.41000000    41.37000000
   H     41.83000000    27.68000000    39.23000000
   H     44.54000000    26.54000000    39.64000000
   H     44.06000000    28.19000000    39.32000000
   H     43.29000000    28.80000000    36.92000000
   H     44.97000000    25.00000000    37.93000000
   H     43.73000000    28.27000000    34.47000000
   H     45.37000000    24.44000000    35.62000000
   H     45.43000000    25.28000000    33.47000000
   N     42.41000000    24.40000000    39.47000000
   C     42.01000000    23.06000000    39.08000000
   C     40.57000000    22.70000000    39.42000000
   O     40.09000000    21.70000000    38.88000000
   C     42.93000000    22.14000000    39.87000000
   C     44.41000000    22.36000000    39.60000000
   C     45.32000000    21.22000000    40.03000000
   O     45.06000000    20.58000000    41.08000000
   O     46.39000000    20.91000000    39.45000000
   H     43.04000000    24.46000000    40.26000000
   H     42.18000000    22.93000000    38.01000000
   H     42.79000000    21.10000000    39.58000000
   H     42.65000000    22.28000000    40.92000000
   H     44.72000000    23.22000000    40.19000000
   H     44.62000000    22.66000000    38.57000000
   N     39.88000000    23.47000000    40.26000000
   C     38.44000000    23.35000000    40.36000000
   C     37.81000000    24.30000000    39.35000000
   O     36.83000000    23.88000000    38.74000000
   C     38.13000000    23.65000000    41.82000000
   C     38.75000000    22.65000000    42.79000000
   C     38.65000000    23.10000000    44.24000000
   O     39.39000000    24.01000000    44.68000000
   O     37.88000000    22.48000000    45.01000000
   H     40.32000000    24.27000000    40.70000000
   H     38.20000000    22.31000000    40.17000000
   H     37.05000000    23.62000000    42.00000000
   H     38.46000000    24.63000000    42.17000000
   H     39.81000000    22.51000000    42.58000000
   H     38.39000000    21.63000000    42.63000000
   N     38.39000000    25.48000000    39.15000000
   C     37.86000000    26.52000000    38.29000000
   H     36.94900000    26.92500000    38.73000000
   H     38.59700000    27.31600000    38.18500000
   H     37.63400000    26.10100000    37.30900000
   H     39.16000000    25.80000000    39.74000000
  Ca     38.60000000    23.73000000    47.44000000
   O     40.80000000    25.34000000    48.11000000
   H     40.68000000    25.52000000    49.05000000
   H     41.69000000    25.01000000    48.04000000

Ca 1.00



