%chk=loop1.apoCaM-CA-Ng.Init31.run27.water4.chk
%nprocshared=20
%mem=10GB
%nosave
#b3lyp/svp scf=(tight,noincore,xqc) Test 
#IOP(5/87=12) Density=Current Pop=(MK,readradii) iop(6/33=2) iop(6/42=6)

loop1.apoCaM-CA-Ng.Init31.run27.water4 

   0  1 
   C     85.19000000    71.79000000    91.07000000
   C     84.56000000    73.04000000    90.46000000
   O     85.11000000    74.12000000    90.61000000
   H     86.12400000    72.05900000    91.56400000
   H     84.50500000    71.35600000    91.79900000
   H     85.39200000    71.06300000    90.28300000
   N     83.43000000    72.82000000    89.79000000
   C     82.58000000    73.89000000    89.31000000
   C     81.27000000    74.00000000    90.08000000
   O     81.14000000    73.23000000    91.03000000
   C     82.35000000    73.55000000    87.84000000
   C     81.82000000    74.71000000    87.02000000
   O     82.22000000    75.85000000    87.34000000
   O     81.09000000    74.56000000    86.01000000
   H     83.05000000    71.88000000    89.76000000
   H     83.10000000    74.84000000    89.41000000
   H     81.74000000    72.66000000    87.76000000
   H     83.31000000    73.32000000    87.37000000
   N     80.48000000    75.02000000    89.76000000
   C     79.27000000    75.43000000    90.44000000
   C     78.06000000    74.50000000    90.38000000
   O     77.44000000    74.31000000    91.42000000
   C     79.04000000    76.81000000    89.84000000
   C     78.00000000    77.65000000    90.59000000
   C     77.99000000    79.11000000    90.15000000
   C     77.40000000    79.27000000    88.76000000
   N     77.56000000    80.65000000    88.25000000
   H     80.66000000    75.44000000    88.86000000
   H     79.56000000    75.58000000    91.48000000
   H     78.80000000    76.71000000    88.79000000
   H     79.96000000    77.38000000    89.91000000
   H     78.30000000    77.64000000    91.64000000
   H     77.01000000    77.22000000    90.44000000
   H     79.04000000    79.40000000    90.11000000
   H     77.34000000    79.70000000    90.79000000
   H     76.35000000    78.98000000    88.81000000
   H     78.02000000    78.56000000    88.20000000
   H     77.41000000    80.64000000    87.25000000
   H     76.92000000    81.35000000    88.61000000
   H     78.51000000    80.97000000    88.23000000
   N     77.81000000    73.78000000    89.28000000
   C     78.21000000    73.88000000    87.89000000
   C     78.17000000    72.52000000    87.22000000
   O     77.18000000    71.83000000    87.42000000
   C     77.34000000    74.83000000    87.06000000
   C     78.04000000    75.32000000    85.81000000
   O     78.80000000    76.30000000    85.91000000
   O     78.07000000    74.60000000    84.78000000
   H     77.05000000    73.15000000    89.48000000
   H     79.21000000    74.28000000    87.71000000
   H     77.08000000    75.62000000    87.77000000
   H     76.44000000    74.27000000    86.81000000
   N     79.19000000    72.27000000    86.38000000
   C     79.26000000    71.07000000    85.57000000
   C     80.64000000    70.98000000    84.93000000
   O     81.63000000    71.34000000    85.55000000
   H     79.95000000    72.93000000    86.39000000
   H     78.52000000    71.17000000    84.78000000
   H     79.11000000    70.16000000    86.17000000
   N     80.73000000    70.44000000    83.71000000
   C     81.92000000    70.39000000    82.89000000
   C     81.84000000    69.11000000    82.06000000
   O     80.76000000    68.56000000    81.91000000
   C     82.13000000    71.66000000    82.09000000
   C     81.33000000    72.89000000    82.50000000
   O     81.94000000    73.85000000    83.03000000
   O     80.11000000    72.99000000    82.24000000
   H     79.91000000    70.09000000    83.23000000
   H     82.74000000    70.42000000    83.61000000
   H     81.92000000    71.59000000    81.02000000
   H     83.19000000    71.90000000    82.16000000
   N     82.88000000    68.45000000    81.55000000
   C     84.25000000    68.88000000    81.39000000
   C     84.58000000    69.25000000    79.95000000
   O     85.56000000    69.96000000    79.73000000
   H     82.61000000    67.52000000    81.26000000
   H     84.96000000    68.14000000    81.76000000
   H     84.33000000    69.84000000    81.92000000
   N     83.81000000    68.78000000    78.97000000
   C     83.89000000    69.28000000    77.61000000
   C     85.26000000    69.39000000    76.97000000
   O     85.67000000    70.48000000    76.56000000
   C     82.88000000    70.39000000    77.31000000
   C     83.22000000    71.67000000    78.06000000
   O     81.54000000    69.97000000    77.46000000
   H     83.25000000    67.98000000    79.21000000
   H     83.42000000    68.54000000    76.96000000
   H     83.04000000    70.47000000    76.23000000
   H     81.56000000    69.01000000    77.45000000
   H     84.17000000    72.09000000    77.76000000
   H     82.44000000    72.41000000    77.88000000
   H     83.25000000    71.32000000    79.10000000
   N     85.97000000    68.26000000    76.87000000
   C     87.37000000    67.98000000    76.62000000
   C     87.97000000    68.53000000    75.33000000
   O     88.49000000    67.78000000    74.50000000
   C     88.31000000    68.15000000    77.80000000
   C     87.91000000    67.53000000    79.14000000
   C     89.73000000    67.71000000    77.48000000
   C     87.36000000    66.11000000    79.02000000
   H     85.44000000    67.43000000    77.11000000
   H     87.38000000    66.90000000    76.42000000
   H     88.32000000    69.23000000    77.95000000
   H     87.17000000    68.16000000    79.61000000
   H     88.76000000    67.59000000    79.83000000
   H     89.64000000    66.70000000    77.06000000
   H     90.06000000    68.23000000    76.58000000
   H     90.40000000    67.78000000    78.34000000
   H     88.10000000    65.43000000    78.59000000
   H     87.05000000    65.73000000    79.99000000
   H     86.46000000    66.10000000    78.40000000
   N     87.80000000    69.81000000    75.00000000
   C     88.11000000    70.47000000    73.75000000
   C     89.58000000    70.81000000    73.55000000
   O     90.15000000    71.30000000    74.52000000
   C     87.15000000    71.65000000    73.62000000
   C     87.29000000    72.81000000    74.60000000
   O     85.80000000    71.25000000    73.76000000
   H     87.23000000    70.31000000    75.66000000
   H     87.90000000    69.79000000    72.92000000
   H     87.36000000    71.99000000    72.61000000
   H     85.77000000    70.91000000    74.65000000
   H     87.00000000    72.48000000    75.60000000
   H     88.28000000    73.27000000    74.62000000
   H     86.52000000    73.56000000    74.39000000
   N     90.14000000    70.64000000    72.35000000
   C     91.52000000    71.07000000    72.20000000
   C     91.65000000    72.59000000    72.26000000
   O     90.75000000    73.37000000    71.95000000
   C     92.04000000    70.49000000    70.89000000
   C     91.37000000    71.12000000    69.67000000
   O     93.40000000    70.78000000    70.68000000
   H     89.70000000    70.12000000    71.62000000
   H     92.15000000    70.59000000    72.95000000
   H     91.92000000    69.40000000    70.90000000
   H     93.53000000    70.28000000    69.87000000
   H     91.59000000    70.59000000    68.75000000
   H     90.28000000    71.10000000    69.71000000
   H     91.60000000    72.18000000    69.59000000
   N     92.81000000    73.07000000    72.72000000
   C     93.20000000    74.46000000    72.77000000
   C     92.12000000    75.43000000    73.24000000
   O     92.00000000    76.52000000    72.68000000
   C     93.94000000    74.88000000    71.51000000
   C     93.07000000    74.65000000    70.27000000
   C     93.59000000    75.57000000    69.17000000
   C     92.64000000    75.62000000    67.98000000
   N     93.18000000    76.20000000    66.74000000
   H     93.48000000    72.37000000    72.98000000
   H     93.91000000    74.57000000    73.59000000
   H     94.85000000    74.29000000    71.35000000
   H     94.30000000    75.90000000    71.60000000
   H     92.06000000    74.97000000    70.50000000
   H     93.15000000    73.60000000    70.00000000
   H     94.59000000    75.16000000    68.99000000
   H     93.70000000    76.61000000    69.48000000
   H     91.82000000    76.26000000    68.30000000
   H     92.30000000    74.61000000    67.77000000
   H     92.50000000    76.32000000    66.00000000
   H     93.71000000    77.05000000    66.90000000
   H     93.82000000    75.54000000    66.34000000
   N     91.48000000    75.14000000    74.37000000
   C     90.57000000    76.05000000    75.04000000
   C     89.56000000    75.47000000    76.02000000
   O     88.38000000    75.79000000    75.88000000
   C     91.18000000    77.27000000    75.73000000
   C     90.22000000    78.45000000    75.83000000
   C     90.65000000    79.59000000    76.74000000
   O     91.79000000    79.66000000    77.25000000
   O     89.91000000    80.59000000    76.84000000
   H     91.62000000    74.20000000    74.71000000
   H     89.91000000    76.55000000    74.33000000
   H     92.04000000    77.60000000    75.15000000
   H     91.50000000    77.01000000    76.74000000
   H     89.26000000    78.16000000    76.25000000
   H     90.09000000    79.07000000    74.94000000
   N     89.85000000    74.56000000    76.95000000
   C     91.13000000    74.04000000    77.38000000
   H     91.84800000    74.85700000    77.45100000
   H     91.02100000    73.56700000    78.35600000
   H     91.48600000    73.30600000    76.65700000
   H     89.03000000    74.34000000    77.50000000
  Ca     80.30000000    75.59000000    83.76000000
   O     81.14000000    76.32000000    81.50000000
   H     82.07000000    76.29000000    81.28000000
   H     80.78000000    76.99000000    80.93000000
   O     78.16000000    76.46000000    82.43000000
   H     77.39000000    76.19000000    82.93000000
   H     77.85000000    76.54000000    81.53000000
   O     79.94000000    78.51000000    83.99000000
   H     80.27000000    78.88000000    84.81000000
   H     79.26000000    79.12000000    83.72000000
   O     82.63000000    76.55000000    84.59000000
   H     83.26000000    77.27000000    84.46000000
   H     82.81000000    76.22000000    85.47000000

Ca 1.00



