%chk=loop1.holoCaM-CaMKII.run11.water2.chk
%nprocshared=20
%mem=10GB
%nosave
#b3lyp/svp scf=(tight,noincore,xqc) Test 
#IOP(5/87=12) Density=Current Pop=(MK,readradii) iop(6/33=2) iop(6/42=6)

loop1.holoCaM-CaMKII.run11.water2 

   0  1 
   C     83.77000000    71.77000000    19.43000000
   C     84.76000000    72.89000000    19.12000000
   O     85.14000000    73.11000000    17.98000000
   H     82.84700000    71.93800000    18.87500000
   H     84.20100000    70.81200000    19.13700000
   H     83.55400000    71.76100000    20.49800000
   N     85.28000000    73.54000000    20.16000000
   C     86.39000000    74.46000000    20.05000000
   C     87.59000000    73.74000000    19.44000000
   O     88.06000000    72.74000000    19.98000000
   C     86.66000000    75.17000000    21.38000000
   C     87.74000000    76.23000000    21.31000000
   O     88.22000000    76.77000000    22.34000000
   O     88.06000000    76.64000000    20.17000000
   H     85.12000000    73.11000000    21.06000000
   H     86.12000000    75.19000000    19.29000000
   H     86.94000000    74.45000000    22.15000000
   H     85.76000000    75.70000000    21.71000000
   N     88.02000000    74.18000000    18.26000000
   C     88.97000000    73.54000000    17.37000000
   C     90.35000000    74.15000000    17.19000000
   O     91.22000000    73.68000000    16.46000000
   C     88.27000000    73.25000000    16.04000000
   C     88.36000000    71.79000000    15.61000000
   C     87.72000000    70.81000000    16.60000000
   C     87.49000000    69.46000000    15.93000000
   N     87.09000000    68.45000000    16.92000000
   H     87.55000000    75.01000000    17.91000000
   H     89.20000000    72.60000000    17.86000000
   H     88.51000000    73.98000000    15.26000000
   H     87.20000000    73.42000000    16.13000000
   H     89.40000000    71.51000000    15.47000000
   H     87.77000000    71.64000000    14.71000000
   H     86.76000000    71.15000000    16.97000000
   H     88.41000000    70.69000000    17.43000000
   H     88.39000000    69.15000000    15.38000000
   H     86.67000000    69.54000000    15.21000000
   H     86.26000000    68.66000000    17.45000000
   H     86.97000000    67.52000000    16.54000000
   H     87.79000000    68.23000000    17.62000000
   N     90.64000000    75.24000000    17.90000000
   C     91.90000000    75.96000000    17.96000000
   C     92.33000000    76.33000000    19.37000000
   O     93.52000000    76.57000000    19.58000000
   C     91.89000000    77.13000000    16.97000000
   C     90.77000000    78.17000000    17.02000000
   O     90.37000000    78.76000000    16.00000000
   O     90.17000000    78.27000000    18.11000000
   H     89.86000000    75.65000000    18.40000000
   H     92.69000000    75.28000000    17.64000000
   H     92.03000000    76.68000000    15.99000000
   H     92.76000000    77.75000000    17.18000000
   N     91.45000000    76.25000000    20.36000000
   C     91.65000000    76.30000000    21.80000000
   C     91.59000000    77.63000000    22.54000000
   O     92.20000000    77.83000000    23.59000000
   H     90.48000000    76.15000000    20.07000000
   H     92.62000000    75.80000000    21.88000000
   H     90.95000000    75.58000000    22.23000000
   N     90.87000000    78.59000000    21.97000000
   C     90.68000000    79.92000000    22.52000000
   C     89.57000000    80.05000000    23.56000000
   O     89.42000000    81.11000000    24.16000000
   C     90.41000000    80.82000000    21.32000000
   C     89.17000000    80.54000000    20.47000000
   O     88.28000000    79.86000000    21.02000000
   O     89.14000000    80.85000000    19.26000000
   H     90.24000000    78.33000000    21.22000000
   H     91.54000000    80.31000000    23.06000000
   H     91.31000000    80.67000000    20.72000000
   H     90.41000000    81.87000000    21.60000000
   N     88.93000000    78.93000000    23.88000000
   C     87.86000000    78.79000000    24.85000000
   C     86.52000000    79.33000000    24.37000000
   O     85.66000000    79.71000000    25.16000000
   H     89.11000000    78.09000000    23.35000000
   H     88.02000000    79.23000000    25.83000000
   H     87.71000000    77.72000000    25.00000000
   N     86.28000000    79.46000000    23.07000000
   C     85.06000000    79.88000000    22.40000000
   C     84.73000000    78.95000000    21.24000000
   O     85.56000000    78.39000000    20.52000000
   C     85.19000000    81.33000000    21.94000000
   C     84.66000000    82.33000000    22.96000000
   O     86.48000000    81.81000000    21.66000000
   H     87.00000000    79.18000000    22.42000000
   H     84.21000000    79.82000000    23.08000000
   H     84.66000000    81.49000000    21.00000000
   H     87.10000000    81.13000000    21.93000000
   H     85.02000000    82.18000000    23.98000000
   H     84.87000000    83.37000000    22.72000000
   H     83.59000000    82.21000000    23.09000000
   N     83.44000000    78.77000000    20.95000000
   C     82.92000000    78.06000000    19.80000000
   C     82.21000000    79.06000000    18.89000000
   O     81.27000000    79.78000000    19.22000000
   C     81.90000000    77.00000000    20.20000000
   C     82.25000000    76.17000000    21.42000000
   C     81.61000000    76.17000000    18.96000000
   C     81.04000000    75.33000000    21.81000000
   H     82.79000000    79.07000000    21.66000000
   H     83.69000000    77.46000000    19.33000000
   H     81.04000000    77.64000000    20.40000000
   H     82.47000000    76.77000000    22.30000000
   H     83.04000000    75.46000000    21.18000000
   H     82.44000000    75.48000000    18.78000000
   H     80.79000000    75.45000000    19.03000000
   H     81.57000000    76.76000000    18.04000000
   H     80.60000000    74.81000000    20.96000000
   H     81.32000000    74.53000000    22.51000000
   H     80.25000000    75.91000000    22.29000000
   N     82.66000000    79.05000000    17.64000000
   C     82.14000000    79.75000000    16.48000000
   C     80.97000000    79.03000000    15.81000000
   O     80.82000000    77.85000000    16.13000000
   C     83.20000000    79.97000000    15.41000000
   C     84.27000000    80.97000000    15.85000000
   O     83.92000000    78.78000000    15.14000000
   H     83.57000000    78.63000000    17.51000000
   H     81.79000000    80.72000000    16.85000000
   H     82.68000000    80.34000000    14.53000000
   H     84.59000000    78.65000000    15.81000000
   H     84.92000000    80.59000000    16.64000000
   H     84.82000000    81.24000000    14.95000000
   H     83.93000000    81.96000000    16.15000000
   N     80.20000000    79.76000000    15.01000000
   C     79.30000000    79.22000000    14.01000000
   C     79.97000000    78.15000000    13.16000000
   O     79.32000000    77.14000000    12.89000000
   C     78.66000000    80.27000000    13.11000000
   C     77.77000000    81.26000000    13.86000000
   O     79.68000000    81.08000000    12.57000000
   H     80.35000000    80.76000000    15.01000000
   H     78.50000000    78.74000000    14.57000000
   H     78.07000000    79.80000000    12.33000000
   H     79.35000000    81.75000000    11.97000000
   H     78.32000000    81.55000000    14.75000000
   H     77.61000000    82.18000000    13.30000000
   H     76.80000000    80.82000000    14.12000000
   N     81.23000000    78.33000000    12.79000000
   C     82.01000000    77.49000000    11.89000000
   C     82.29000000    76.22000000    12.67000000
   O     82.16000000    75.12000000    12.14000000
   C     83.24000000    78.28000000    11.45000000
   C     84.03000000    77.58000000    10.35000000
   C     83.40000000    77.33000000     8.98000000
   C     83.41000000    78.70000000     8.30000000
   N     82.85000000    78.66000000     6.93000000
   H     81.54000000    79.26000000    13.04000000
   H     81.31000000    77.20000000    11.10000000
   H     83.90000000    78.72000000    12.20000000
   H     82.88000000    79.24000000    11.07000000
   H     84.39000000    76.61000000    10.70000000
   H     84.93000000    78.18000000    10.27000000
   H     82.44000000    76.83000000     9.08000000
   H     84.07000000    76.65000000     8.46000000
   H     84.41000000    79.11000000     8.32000000
   H     82.86000000    79.43000000     8.89000000
   H     82.91000000    79.56000000     6.47000000
   H     83.32000000    77.98000000     6.36000000
   H     81.87000000    78.40000000     6.90000000
   N     82.68000000    76.32000000    13.95000000
   C     83.10000000    75.23000000    14.80000000
   C     81.86000000    74.38000000    15.05000000
   O     81.93000000    73.19000000    15.36000000
   C     83.85000000    75.68000000    16.06000000
   C     85.30000000    76.05000000    15.80000000
   C     85.95000000    76.89000000    16.89000000
   O     85.32000000    77.86000000    17.37000000
   O     87.15000000    76.69000000    17.15000000
   H     82.83000000    77.25000000    14.30000000
   H     83.80000000    74.71000000    14.14000000
   H     83.81000000    74.90000000    16.82000000
   H     83.29000000    76.50000000    16.51000000
   H     85.46000000    76.50000000    14.82000000
   H     85.82000000    75.10000000    15.66000000
   N     80.69000000    75.01000000    15.06000000
   C     79.41000000    74.33000000    15.05000000
   H     78.67200000    74.95300000    14.54400000
   H     79.50600000    73.38100000    14.52200000
   H     79.08800000    74.14600000    16.07500000
   H     80.74000000    76.02000000    15.10000000
  Ca     87.39000000    78.81000000    18.84000000
   O     86.29000000    81.23000000    18.92000000
   H     86.42000000    81.75000000    18.12000000
   H     86.96000000    81.55000000    19.52000000
   O     87.90000000    79.93000000    16.43000000
   H     87.84000000    80.78000000    16.00000000
   H     88.81000000    79.67000000    16.33000000

Ca 1.00



