%chk=loop3.apoCaM-CA-Ng.Init293.run28.water4.chk
%nprocshared=20
%mem=10GB
%nosave
#b3lyp/svp scf=(tight,noincore,xqc) Test 
#IOP(5/87=12) Density=Current Pop=(MK,readradii) iop(6/33=2) iop(6/42=6)

loop3.apoCaM-CA-Ng.Init293.run28.water4 

   0  1 
   C     38.40000000     6.76000000    -2.76000000
   C     37.79000000     7.02000000    -4.12000000
   O     37.97000000     6.22000000    -5.04000000
   H     39.29300000     7.37400000    -2.64000000
   H     37.67800000     7.01300000    -1.98300000
   H     38.67000000     5.70700000    -2.67700000
   N     37.29000000     8.24000000    -4.33000000
   C     36.48000000     8.59000000    -5.48000000
   C     35.08000000     8.01000000    -5.34000000
   O     34.56000000     8.09000000    -4.22000000
   C     36.44000000    10.10000000    -5.67000000
   C     36.14000000    10.54000000    -7.10000000
   O     36.59000000    11.64000000    -7.50000000
   O     35.45000000     9.80000000    -7.82000000
   H     37.26000000     8.91000000    -3.58000000
   H     36.99000000     8.13000000    -6.32000000
   H     37.36000000    10.53000000    -5.26000000
   H     35.70000000    10.43000000    -4.94000000
   N     34.45000000     7.51000000    -6.40000000
   C     33.27000000     6.66000000    -6.44000000
   C     32.00000000     7.36000000    -6.00000000
   O     30.98000000     6.67000000    -6.05000000
   C     33.49000000     5.28000000    -5.85000000
   C     34.74000000     4.57000000    -6.35000000
   C     34.79000000     3.13000000    -5.82000000
   C     36.15000000     2.53000000    -6.17000000
   N     36.42000000     2.47000000    -7.61000000
   H     34.85000000     7.64000000    -7.32000000
   H     33.14000000     6.61000000    -7.52000000
   H     32.60000000     4.67000000    -6.05000000
   H     33.52000000     5.37000000    -4.76000000
   H     35.58000000     5.18000000    -6.03000000
   H     34.71000000     4.61000000    -7.43000000
   H     33.99000000     2.54000000    -6.26000000
   H     34.75000000     3.12000000    -4.73000000
   H     36.17000000     1.51000000    -5.78000000
   H     36.91000000     3.01000000    -5.56000000
   H     35.63000000     2.09000000    -8.12000000
   H     36.47000000     3.42000000    -7.96000000
   H     37.26000000     1.96000000    -7.84000000
   N     31.95000000     8.61000000    -5.53000000
   C     30.88000000     9.45000000    -5.02000000
   C     31.21000000    10.92000000    -5.22000000
   O     32.30000000    11.34000000    -4.82000000
   C     30.64000000     9.09000000    -3.55000000
   C     29.31000000     9.60000000    -3.01000000
   O     29.21000000     9.46000000    -1.77000000
   O     28.51000000    10.24000000    -3.73000000
   H     32.83000000     9.05000000    -5.34000000
   H     30.02000000     9.19000000    -5.63000000
   H     31.47000000     9.41000000    -2.93000000
   H     30.48000000     8.02000000    -3.38000000
   N     30.25000000    11.72000000    -5.69000000
   C     30.38000000    13.16000000    -5.64000000
   C     29.30000000    13.74000000    -4.74000000
   O     28.18000000    13.22000000    -4.79000000
   H     29.34000000    11.32000000    -5.88000000
   H     30.19000000    13.45000000    -6.68000000
   H     31.39000000    13.48000000    -5.39000000
   N     29.60000000    14.78000000    -3.97000000
   C     28.80000000    15.34000000    -2.90000000
   C     28.83000000    16.87000000    -2.92000000
   O     27.94000000    17.43000000    -2.28000000
   C     29.32000000    14.70000000    -1.62000000
   C     28.93000000    13.23000000    -1.61000000
   N     29.89000000    12.30000000    -1.74000000
   O     27.77000000    12.87000000    -1.72000000
   H     30.57000000    15.08000000    -3.95000000
   H     27.73000000    15.23000000    -3.04000000
   H     28.81000000    15.16000000    -0.77000000
   H     30.41000000    14.75000000    -1.59000000
   H     30.86000000    12.54000000    -1.88000000
   H     29.55000000    11.35000000    -1.75000000
   N     29.64000000    17.53000000    -3.74000000
   C     29.67000000    18.98000000    -3.71000000
   C     30.08000000    19.62000000    -2.40000000
   O     31.07000000    19.21000000    -1.79000000
   H     30.43000000    17.13000000    -4.23000000
   H     28.63000000    19.21000000    -3.95000000
   H     30.28000000    19.34000000    -4.54000000
   N     29.35000000    20.66000000    -1.99000000
   C     29.55000000    21.36000000    -0.74000000
   C     29.59000000    20.56000000     0.56000000
   O     29.72000000    21.13000000     1.65000000
   C     30.75000000    22.25000000    -1.06000000
   C     30.79000000    23.47000000    -0.17000000
   C     29.78000000    24.43000000    -0.24000000
   C     31.84000000    23.66000000     0.73000000
   C     29.79000000    25.54000000     0.62000000
   C     31.97000000    24.82000000     1.51000000
   C     30.89000000    25.73000000     1.47000000
   O     30.99000000    26.85000000     2.25000000
   H     28.71000000    21.00000000    -2.69000000
   H     28.70000000    22.01000000    -0.54000000
   H     30.61000000    22.51000000    -2.11000000
   H     31.67000000    21.66000000    -0.98000000
   H     29.01000000    24.27000000    -0.98000000
   H     32.68000000    22.99000000     0.77000000
   H     29.00000000    26.27000000     0.58000000
   H     32.80000000    25.03000000     2.17000000
   H     31.80000000    26.89000000     2.76000000
   N     29.41000000    19.24000000     0.60000000
   C     29.10000000    18.27000000     1.62000000
   C     27.83000000    18.50000000     2.42000000
   O     26.96000000    17.65000000     2.59000000
   C     30.35000000    18.06000000     2.48000000
   C     31.56000000    17.54000000     1.72000000
   C     30.08000000    16.97000000     3.52000000
   C     32.87000000    17.78000000     2.46000000
   H     29.32000000    18.74000000    -0.27000000
   H     28.96000000    17.30000000     1.15000000
   H     30.48000000    19.02000000     2.99000000
   H     31.70000000    18.08000000     0.79000000
   H     31.35000000    16.51000000     1.44000000
   H     30.89000000    16.92000000     4.24000000
   H     29.23000000    17.17000000     4.17000000
   H     29.79000000    16.03000000     3.05000000
   H     32.74000000    17.28000000     3.42000000
   H     33.74000000    17.31000000     2.01000000
   H     32.98000000    18.86000000     2.61000000
   N     27.59000000    19.69000000     2.99000000
   C     26.36000000    20.08000000     3.63000000
   C     25.97000000    19.42000000     4.95000000
   O     24.79000000    19.41000000     5.29000000
   C     26.28000000    21.61000000     3.68000000
   O     26.64000000    22.14000000     2.43000000
   H     28.27000000    20.44000000     2.91000000
   H     25.55000000    19.82000000     2.95000000
   H     27.03000000    22.03000000     4.35000000
   H     25.33000000    22.08000000     3.95000000
   H     26.43000000    21.55000000     1.70000000
   N     26.90000000    18.66000000     5.53000000
   C     26.69000000    17.68000000     6.58000000
   C     25.75000000    16.56000000     6.15000000
   O     25.19000000    15.95000000     7.05000000
   C     26.32000000    18.40000000     7.87000000
   H     27.87000000    18.82000000     5.30000000
   H     27.66000000    17.19000000     6.71000000
   H     26.26000000    17.73000000     8.72000000
   H     26.97000000    19.24000000     8.14000000
   H     25.29000000    18.74000000     7.84000000
   N     25.60000000    16.31000000     4.85000000
   C     24.84000000    15.17000000     4.38000000
   C     25.65000000    13.96000000     3.93000000
   O     26.88000000    14.03000000     3.98000000
   C     23.93000000    15.72000000     3.28000000
   H     26.18000000    16.95000000     4.32000000
   H     24.20000000    14.84000000     5.19000000
   H     23.32000000    16.51000000     3.72000000
   H     24.50000000    16.17000000     2.46000000
   H     23.21000000    15.03000000     2.84000000
   N     24.99000000    12.87000000     3.55000000
   C     25.53000000    11.62000000     3.05000000
   C     26.50000000    10.89000000     3.96000000
   O     27.06000000     9.84000000     3.61000000
   C     25.86000000    11.68000000     1.56000000
   C     24.65000000    11.44000000     0.67000000
   C     25.01000000    11.38000000    -0.81000000
   O     25.41000000    10.36000000    -1.41000000
   O     24.97000000    12.43000000    -1.49000000
   H     23.98000000    12.91000000     3.59000000
   H     24.60000000    11.05000000     3.07000000
   H     26.46000000    10.78000000     1.39000000
   H     26.42000000    12.58000000     1.31000000
   H     24.00000000    12.27000000     0.95000000
   H     24.15000000    10.50000000     0.92000000
   N     26.70000000    11.36000000     5.19000000
   C     27.61000000    10.94000000     6.23000000
   H     28.49000000    11.58300000     6.22300000
   H     27.11500000    11.01400000     7.19800000
   H     27.91300000     9.90800000     6.05400000
   H     26.13000000    12.19000000     5.27000000
  Ca     26.33000000    11.62000000    -3.59000000
   O     26.37000000    10.98000000    -6.25000000
   H     26.41000000    10.03000000    -6.35000000
   H     26.98000000    11.32000000    -6.91000000
   O     23.59000000    11.60000000    -4.14000000
   H     22.95000000    11.68000000    -3.43000000
   H     23.16000000    12.01000000    -4.90000000
   O     25.68000000     9.15000000    -4.18900000
   H     26.23000000     8.37000000    -4.15000000
   H     24.87000000     8.86000000    -4.60000000
   O     25.35000000    13.84000000    -4.84000000
   H     24.55000000    14.30000000    -5.06000000
   H     26.05000000    14.45000000    -5.07000000

Ca 1.00



