%chk=loop3.holoCaM-CaMKII.run10.water2.chk
%nprocshared=20
%mem=10GB
%nosave
#b3lyp/svp scf=(tight,noincore,xqc) Test 
#IOP(5/87=12) Density=Current Pop=(MK,readradii) iop(6/33=2) iop(6/42=6)

loop3.holoCaM-CaMKII.run10.water2 

   0  1 
   C     77.87000000    61.27000000    20.58000000
   C     77.79000000    59.83000000    20.09000000
   O     78.76000000    59.09000000    20.17000000
   H     78.57800000    61.82400000    19.96400000
   H     76.88600000    61.73400000    20.50800000
   H     78.20400000    61.28300000    21.61800000
   N     76.63000000    59.47000000    19.54000000
   C     76.34000000    58.23000000    18.86000000
   C     76.78000000    58.37000000    17.41000000
   O     76.16000000    59.05000000    16.59000000
   C     74.86000000    57.89000000    19.02000000
   C     74.43000000    56.57000000    18.39000000
   O     73.23000000    56.24000000    18.50000000
   O     75.32000000    55.95000000    17.78000000
   H     75.84000000    60.08000000    19.69000000
   H     76.96000000    57.46000000    19.32000000
   H     74.36000000    58.81000000    18.75000000
   H     74.83000000    57.65000000    20.09000000
   N     77.90000000    57.72000000    17.08000000
   C     78.60000000    58.08000000    15.87000000
   C     78.00000000    57.48000000    14.61000000
   O     78.33000000    57.83000000    13.47000000
   C     80.02000000    57.52000000    15.96000000
   C     81.10000000    58.09000000    15.05000000
   C     82.53000000    57.77000000    15.47000000
   C     83.39000000    58.06000000    14.24000000
   N     84.61000000    57.25000000    14.31000000
   H     78.20000000    56.88000000    17.56000000
   H     78.61000000    59.17000000    15.88000000
   H     79.98000000    56.44000000    15.85000000
   H     80.37000000    57.74000000    16.97000000
   H     81.06000000    59.17000000    14.89000000
   H     80.87000000    57.73000000    14.05000000
   H     82.56000000    56.71000000    15.68000000
   H     82.84000000    58.34000000    16.36000000
   H     83.59000000    59.13000000    14.17000000
   H     82.95000000    57.76000000    13.29000000
   H     84.47000000    56.27000000    14.12000000
   H     85.37000000    57.52000000    13.70000000
   H     85.08000000    57.35000000    15.20000000
   N     77.05000000    56.56000000    14.79000000
   C     76.24000000    56.03000000    13.71000000
   C     74.74000000    56.02000000    13.98000000
   O     73.92000000    55.37000000    13.34000000
   C     76.58000000    54.56000000    13.49000000
   C     76.64000000    53.58000000    14.66000000
   O     76.44000000    54.01000000    15.81000000
   O     76.78000000    52.37000000    14.37000000
   H     76.69000000    56.38000000    15.72000000
   H     76.42000000    56.60000000    12.81000000
   H     77.58000000    54.46000000    13.06000000
   H     75.99000000    54.11000000    12.69000000
   N     74.29000000    56.72000000    15.02000000
   C     72.89000000    56.88000000    15.33000000
   C     72.12000000    55.62000000    15.70000000
   O     70.92000000    55.52000000    15.44000000
   H     74.94000000    57.26000000    15.58000000
   H     72.40000000    57.37000000    14.50000000
   H     72.86000000    57.55000000    16.19000000
   N     72.83000000    54.55000000    16.07000000
   C     72.22000000    53.25000000    16.28000000
   C     71.54000000    53.01000000    17.62000000
   O     70.93000000    51.96000000    17.80000000
   C     73.25000000    52.17000000    15.93000000
   C     73.98000000    51.70000000    17.18000000
   N     73.97000000    50.40000000    17.51000000
   O     74.41000000    52.49000000    18.01000000
   H     73.83000000    54.60000000    16.23000000
   H     71.43000000    53.14000000    15.55000000
   H     74.01000000    52.54000000    15.25000000
   H     72.72000000    51.31000000    15.54000000
   H     73.68000000    49.71000000    16.84000000
   H     74.31000000    50.13000000    18.43000000
   N     71.56000000    53.98000000    18.54000000
   C     70.90000000    53.89000000    19.82000000
   C     71.81000000    54.15000000    21.02000000
   O     71.35000000    54.05000000    22.15000000
   H     72.18000000    54.77000000    18.40000000
   H     70.51000000    52.88000000    19.95000000
   H     69.97000000    54.45000000    19.72000000
   N     73.12000000    54.29000000    20.82000000
   C     74.06000000    54.02000000    21.90000000
   C     75.41000000    54.68000000    21.68000000
   O     75.83000000    54.87000000    20.54000000
   C     74.35000000    52.53000000    22.09000000
   C     73.17000000    51.64000000    22.40000000
   C     72.51000000    51.67000000    23.63000000
   C     72.66000000    50.91000000    21.32000000
   C     71.31000000    50.97000000    23.78000000
   C     71.57000000    50.07000000    21.52000000
   C     70.83000000    50.18000000    22.72000000
   O     69.64000000    49.55000000    22.94000000
   H     73.50000000    54.44000000    19.90000000
   H     73.62000000    54.47000000    22.79000000
   H     75.03000000    52.52000000    22.94000000
   H     74.90000000    52.18000000    21.22000000
   H     72.83000000    52.36000000    24.40000000
   H     73.23000000    50.89000000    20.40000000
   H     70.76000000    50.90000000    24.71000000
   H     71.18000000    49.46000000    20.71000000
   H     69.30000000    49.04000000    22.20000000
   N     76.18000000    54.92000000    22.75000000
   C     77.42000000    55.66000000    22.79000000
   C     78.43000000    54.68000000    23.38000000
   O     78.25000000    54.27000000    24.53000000
   C     77.27000000    56.93000000    23.63000000
   C     76.12000000    57.85000000    23.23000000
   C     78.64000000    57.60000000    23.65000000
   C     75.95000000    59.06000000    24.14000000
   H     75.76000000    54.83000000    23.66000000
   H     77.74000000    56.00000000    21.80000000
   H     77.02000000    56.56000000    24.63000000
   H     75.23000000    57.22000000    23.21000000
   H     76.31000000    58.14000000    22.19000000
   H     79.02000000    57.87000000    22.66000000
   H     78.63000000    58.56000000    24.16000000
   H     79.42000000    56.93000000    24.00000000
   H     75.36000000    59.77000000    23.57000000
   H     75.43000000    58.78000000    25.06000000
   H     76.89000000    59.55000000    24.40000000
   N     79.46000000    54.22000000    22.67000000
   C     80.59000000    53.47000000    23.16000000
   C     81.72000000    54.41000000    23.54000000
   O     81.67000000    55.59000000    23.21000000
   C     80.99000000    52.36000000    22.18000000
   O     81.56000000    52.91000000    21.02000000
   H     79.50000000    54.59000000    21.73000000
   H     80.46000000    52.86000000    24.06000000
   H     80.21000000    51.64000000    21.95000000
   H     81.78000000    51.76000000    22.63000000
   H     80.94000000    53.40000000    20.47000000
   N     82.80000000    53.92000000    24.16000000
   C     83.88000000    54.83000000    24.50000000
   C     84.59000000    55.43000000    23.29000000
   O     84.98000000    56.60000000    23.35000000
   C     84.89000000    54.09000000    25.38000000
   H     82.82000000    52.96000000    24.47000000
   H     83.45000000    55.71000000    24.97000000
   H     85.28000000    53.20000000    24.89000000
   H     85.80000000    54.64000000    25.61000000
   H     84.37000000    53.86000000    26.31000000
   N     84.73000000    54.73000000    22.17000000
   C     85.24000000    55.37000000    20.97000000
   C     84.38000000    56.51000000    20.45000000
   O     84.96000000    57.49000000    19.99000000
   C     85.37000000    54.28000000    19.91000000
   H     84.61000000    53.72000000    22.21000000
   H     86.26000000    55.75000000    21.04000000
   H     86.20000000    53.60000000    20.05000000
   H     84.47000000    53.68000000    19.88000000
   H     85.59000000    54.75000000    18.95000000
   N     83.06000000    56.38000000    20.51000000
   C     82.22000000    57.38000000    19.89000000
   C     82.10000000    58.70000000    20.64000000
   O     82.17000000    59.71000000    19.94000000
   C     80.86000000    56.72000000    19.74000000
   C     80.93000000    55.44000000    18.90000000
   C     79.54000000    54.85000000    19.04000000
   O     78.65000000    55.21000000    18.23000000
   O     79.27000000    54.01000000    19.92000000
   H     82.69000000    55.53000000    20.92000000
   H     82.56000000    57.58000000    18.87000000
   H     80.31000000    57.45000000    19.14000000
   H     80.48000000    56.54000000    20.74000000
   H     81.71000000    54.74000000    19.19000000
   H     81.09000000    55.69000000    17.85000000
   N     82.11000000    58.64000000    21.98000000
   C     82.43000000    59.82000000    22.75000000
   H     83.30600000    60.30700000    22.32100000
   H     81.58500000    60.50900000    22.72900000
   H     82.64200000    59.53600000    23.78100000
   H     81.99000000    57.71000000    22.36000000
  Ca     76.68000000    53.83000000    18.31000000
   O     77.49000000    51.58000000    17.12000000
   H     77.98000000    50.99000000    17.70000000
   H     77.22000000    51.03000000    16.39000000
   O     77.22000000    51.93000000    20.15000000
   H     77.35000000    51.89000000    21.10000000
   H     78.05000000    51.61000000    19.78000000

Ca 1.00



