%chk=loop2.apoCaM-CA-Ng.Init293.run22.water6.chk
%nprocshared=20
%mem=10GB
%nosave
#b3lyp/svp scf=(tight,noincore,xqc) Test 
#IOP(5/87=12) Density=Current Pop=(MK,readradii) iop(6/33=2) iop(6/42=6)

loop2.apoCaM-CA-Ng.Init293.run22.water6 

   -2  1 
   C     62.80000000   -19.64000000    14.46000000
   C     62.78000000   -21.02000000    15.09000000
   O     63.35000000   -21.22000000    16.16000000
   H     63.70500000   -19.11500000    14.76500000
   H     62.78400000   -19.73500000    13.37400000
   H     61.92600000   -19.07700000    14.78800000
   N     62.22000000   -22.04000000    14.43000000
   C     62.27000000   -23.44000000    14.80000000
   C     63.63000000   -24.05000000    15.10000000
   O     63.77000000   -24.90000000    15.98000000
   C     61.41000000   -24.15000000    13.76000000
   C     61.71000000   -25.64000000    13.80000000
   O     61.12000000   -26.34000000    14.65000000
   O     62.58000000   -26.15000000    13.06000000
   H     61.81000000   -21.77000000    13.55000000
   H     61.67000000   -23.48000000    15.71000000
   H     61.71000000   -23.78000000    12.77000000
   H     60.36000000   -23.87000000    13.87000000
   N     64.63000000   -23.64000000    14.31000000
   C     66.02000000   -24.03000000    14.38000000
   C     66.65000000   -23.82000000    15.75000000
   O     67.38000000   -24.68000000    16.21000000
   C     66.14000000   -25.38000000    13.67000000
   H     64.48000000   -22.86000000    13.68000000
   H     66.64000000   -23.38000000    13.77000000
   H     65.71000000   -26.20000000    14.24000000
   H     65.69000000   -25.26000000    12.69000000
   H     67.21000000   -25.54000000    13.51000000
   N     66.39000000   -22.71000000    16.46000000
   C     66.97000000   -22.37000000    17.74000000
   C     66.88000000   -23.54000000    18.71000000
   O     67.74000000   -23.78000000    19.55000000
   C     68.39000000   -21.85000000    17.56000000
   C     68.49000000   -20.68000000    16.60000000
   O     69.62000000   -20.26000000    16.27000000
   O     67.51000000   -19.96000000    16.31000000
   H     65.63000000   -22.12000000    16.15000000
   H     66.32000000   -21.56000000    18.10000000
   H     69.00000000   -22.65000000    17.13000000
   H     68.73000000   -21.51000000    18.54000000
   N     65.75000000   -24.25000000    18.74000000
   C     65.43000000   -25.35000000    19.62000000
   C     64.90000000   -25.02000000    21.01000000
   O     64.42000000   -23.94000000    21.33000000
   H     65.03000000   -24.06000000    18.05000000
   H     66.40000000   -25.86000000    19.61000000
   H     64.74000000   -26.03000000    19.13000000
   N     64.76000000   -26.10000000    21.79000000
   C     64.40000000   -26.10000000    23.20000000
   C     63.03000000   -25.47000000    23.41000000
   O     62.78000000   -24.63000000    24.27000000
   C     65.58000000   -25.59000000    24.01000000
   C     65.65000000   -25.78000000    25.52000000
   N     64.55000000   -25.48000000    26.23000000
   O     66.61000000   -26.27000000    26.10000000
   H     65.28000000   -26.88000000    21.42000000
   H     64.33000000   -27.14000000    23.51000000
   H     65.75000000   -24.56000000    23.70000000
   H     66.46000000   -26.11000000    23.64000000
   H     63.73000000   -25.14000000    25.75000000
   H     64.75000000   -25.22000000    27.18000000
   N     62.08000000   -25.85000000    22.56000000
   C     60.68000000   -25.47000000    22.50000000
   C     60.35000000   -24.11000000    21.91000000
   O     59.16000000   -23.83000000    21.74000000
   H     62.33000000   -26.52000000    21.85000000
   H     60.37000000   -25.42000000    23.55000000
   H     60.14000000   -26.28000000    22.02000000
   N     61.37000000   -23.35000000    21.51000000
   C     61.19000000   -22.29000000    20.54000000
   C     61.58000000   -20.95000000    21.14000000
   O     62.44000000   -20.91000000    22.02000000
   C     61.97000000   -22.52000000    19.24000000
   C     61.79000000   -23.97000000    18.79000000
   O     61.54000000   -21.62000000    18.25000000
   H     62.29000000   -23.56000000    21.87000000
   H     60.14000000   -22.15000000    20.31000000
   H     63.00000000   -22.28000000    19.47000000
   H     62.32000000   -21.30000000    17.78000000
   H     60.73000000   -24.22000000    18.79000000
   H     62.19000000   -24.09000000    17.79000000
   H     62.29000000   -24.73000000    19.38000000
   N     60.98000000   -19.84000000    20.70000000
   C     61.23000000   -18.47000000    21.10000000
   C     62.39000000   -17.94000000    20.27000000
   O     62.49000000   -18.06000000    19.06000000
   C     59.96000000   -17.63000000    21.09000000
   C     60.16000000   -16.37000000    21.93000000
   C     59.42000000   -17.26000000    19.71000000
   C     58.90000000   -15.76000000    22.53000000
   H     60.33000000   -19.97000000    19.94000000
   H     61.58000000   -18.67000000    22.11000000
   H     59.13000000   -18.15000000    21.55000000
   H     60.71000000   -15.61000000    21.37000000
   H     60.73000000   -16.65000000    22.81000000
   H     58.36000000   -17.02000000    19.86000000
   H     59.90000000   -16.38000000    19.27000000
   H     59.68000000   -18.05000000    19.01000000
   H     59.06000000   -15.03000000    23.33000000
   H     58.23000000   -15.33000000    21.79000000
   H     58.32000000   -16.60000000    22.91000000
   N     63.30000000   -17.23000000    20.95000000
   C     64.39000000   -16.53000000    20.29000000
   C     65.52000000   -16.07000000    21.20000000
   O     66.13000000   -15.03000000    20.98000000
   C     63.83000000   -15.35000000    19.50000000
   C     64.50000000   -14.96000000    18.19000000
   O     65.30000000   -15.76000000    17.66000000
   O     64.18000000   -13.83000000    17.75000000
   H     63.14000000   -17.14000000    21.94000000
   H     64.77000000   -17.24000000    19.56000000
   H     63.65000000   -14.44000000    20.08000000
   H     62.80000000   -15.53000000    19.20000000
   N     65.90000000   -16.77000000    22.27000000
   C     67.13000000   -16.56000000    23.02000000
   C     67.12000000   -15.69000000    24.27000000
   O     68.02000000   -14.86000000    24.39000000
   C     67.76000000   -17.93000000    23.23000000
   C     69.10000000   -17.89000000    23.91000000
   C     69.28000000   -18.20000000    25.27000000
   C     70.19000000   -17.41000000    23.17000000
   C     70.45000000   -17.89000000    25.98000000
   C     71.40000000   -17.15000000    23.83000000
   C     71.48000000   -17.31000000    25.22000000
   H     65.48000000   -17.67000000    22.48000000
   H     67.84000000   -16.06000000    22.36000000
   H     67.86000000   -18.35000000    22.22000000
   H     67.12000000   -18.67000000    23.72000000
   H     68.44000000   -18.54000000    25.86000000
   H     70.12000000   -17.31000000    22.10000000
   H     70.54000000   -18.21000000    27.00000000
   H     72.27000000   -16.77000000    23.33000000
   H     72.44000000   -17.12000000    25.66000000
   N     66.22000000   -15.89000000    25.23000000
   C     64.99000000   -16.66000000    25.17000000
   C     63.83000000   -15.93000000    24.51000000
   O     63.02000000   -16.47000000    23.75000000
   C     64.76000000   -17.19000000    26.58000000
   C     65.92000000   -16.64000000    27.40000000
   C     66.38000000   -15.42000000    26.59000000
   H     65.18000000   -17.55000000    24.57000000
   H     63.84000000   -16.68000000    26.87000000
   H     64.61000000   -18.27000000    26.59000000
   H     65.65000000   -16.25000000    28.38000000
   H     66.77000000   -17.31000000    27.31000000
   H     65.87000000   -14.48000000    26.77000000
   H     67.43000000   -15.27000000    26.80000000
   N     63.77000000   -14.60000000    24.62000000
   C     62.60000000   -13.75000000    24.59000000
   C     62.42000000   -13.09000000    23.23000000
   O     63.36000000   -13.03000000    22.44000000
   C     62.66000000   -12.65000000    25.64000000
   C     62.54000000   -13.09000000    27.10000000
   C     62.56000000   -11.89000000    28.03000000
   O     61.84000000   -10.89000000    27.84000000
   O     63.29000000   -11.97000000    29.04000000
   H     64.60000000   -14.14000000    24.97000000
   H     61.76000000   -14.40000000    24.85000000
   H     61.87000000   -11.92000000    25.46000000
   H     63.61000000   -12.13000000    25.53000000
   H     63.41000000   -13.72000000    27.31000000
   H     61.63000000   -13.66000000    27.25000000
   N     61.23000000   -12.49000000    23.05000000
   C     60.65000000   -11.88000000    21.87000000
   H     59.75300000   -11.32800000    22.15100000
   H     61.37100000   -11.19600000    21.42200000
   H     60.38800000   -12.65600000    21.15100000
   H     60.66000000   -12.45000000    23.87000000
  Ca     67.06000000   -17.51000000    17.12000000
   O     64.91000000   -18.94000000    17.69000000
   H     64.99000000   -19.82000000    17.30000000
   H     63.97000000   -18.78000000    17.74000000
   O     65.46000000   -17.49000000    14.87000000
   H     64.93000000   -16.70000000    14.79000000
   H     65.56000000   -17.81000000    13.97000000
   O     67.97000000   -15.41000000    15.68000000
   H     67.60000000   -14.66000000    15.22000000
   H     68.91000000   -15.26000000    15.67000000
   O     68.28000000   -15.83000000    18.97000000
   H     67.75000000   -15.03000000    18.96000000
   H     69.02000000   -15.61000000    19.54000000
   O     69.78000000   -17.87000000    17.07000000
   H     69.79000000   -18.71000000    16.60000000
   H     70.68000000   -17.74000000    17.36000000
   O     67.80000000   -19.07000000    19.23000000
   H     68.37000000   -18.60000000    19.83000000
   H     67.61000000   -19.90000000    19.66000000

Ca 1.00



