%chk=loop4.holoCaM-CaMKII.run37.water2.chk
%nprocshared=20
%mem=10GB
%nosave
#b3lyp/svp scf=(tight,noincore,xqc) Test 
#IOP(5/87=12) Density=Current Pop=(MK,readradii) iop(6/33=2) iop(6/42=6)

loop4.holoCaM-CaMKII.run37.water2 

   -3  1 
   C    103.37700000    52.08000000    17.10300000
   C    103.90700000    52.17000000    18.52300000
   O    104.20700000    53.26000000    19.01300000
   H    102.49800000    52.71600000    17.00300000
   H    104.14600000    52.41200000    16.40600000
   H    103.10500000    51.04800000    16.88100000
   N    104.01700000    51.04000000    19.22300000
   C    104.56700000    50.94000000    20.56300000
   C    106.01700000    51.38000000    20.47300000
   O    106.75700000    50.88000000    19.63300000
   C    104.53700000    49.49000000    21.04300000
   C    105.07700000    49.24000000    22.44300000
   O    105.09700000    50.22000000    23.21300000
   O    105.76700000    48.23000000    22.69300000
   H    103.91700000    50.19000000    18.69300000
   H    104.09700000    51.62000000    21.27300000
   H    105.14700000    48.96000000    20.30300000
   H    103.54700000    49.04000000    20.92300000
   N    106.43700000    52.25000000    21.40300000
   C    107.79700000    52.71000000    21.62300000
   C    108.53700000    51.91000000    22.69300000
   O    109.75700000    51.79000000    22.61300000
   C    107.88700000    54.22000000    21.81300000
   C    107.36700000    55.07000000    20.65300000
   C    109.26700000    54.74000000    22.20300000
   C    107.41700000    56.58000000    20.87300000
   H    105.70700000    52.43000000    22.06300000
   H    108.29700000    52.48000000    20.68300000
   H    107.18700000    54.46000000    22.61300000
   H    106.31700000    54.79000000    20.56300000
   H    107.89700000    54.87000000    19.72300000
   H    109.26700000    55.79000000    22.49300000
   H    109.63700000    54.17000000    23.05300000
   H    109.77700000    54.63000000    21.24300000
   H    107.12700000    56.78000000    21.90300000
   H    108.39700000    56.96000000    20.59300000
   H    106.78700000    57.07000000    20.13300000
   N    107.83700000    51.32000000    23.66300000
   C    108.48700000    50.72000000    24.80300000
   C    108.94700000    49.27000000    24.67300000
   O    109.70700000    48.81000000    25.52300000
   C    107.78700000    50.80000000    26.15300000
   C    107.11700000    52.16000000    26.25300000
   O    107.75700000    53.17000000    26.63300000
   O    105.87700000    52.26000000    26.12300000
   H    106.85700000    51.11000000    23.53300000
   H    109.39700000    51.30000000    24.96300000
   H    108.54700000    50.66000000    26.92300000
   H    107.03700000    50.01000000    26.16300000
   N    108.37700000    48.50000000    23.74300000
   C    108.53700000    47.06000000    23.77300000
   C    107.70700000    46.39000000    24.85300000
   O    107.98700000    45.33000000    25.39300000
   H    107.63700000    48.89000000    23.18300000
   H    109.56700000    46.78000000    24.00300000
   H    108.27700000    46.56000000    22.83300000
   N    106.53700000    46.96000000    25.14300000
   C    105.51700000    46.50000000    26.07300000
   C    104.28700000    45.88000000    25.42300000
   O    103.58700000    45.11000000    26.08300000
   C    105.12700000    47.62000000    27.03300000
   C    104.42700000    48.82000000    26.40300000
   O    103.90700000    48.80000000    25.26300000
   O    104.26700000    49.84000000    27.11300000
   H    106.29700000    47.78000000    24.60300000
   H    105.94700000    45.71000000    26.67300000
   H    106.11700000    47.95000000    27.34300000
   H    104.49700000    47.20000000    27.81300000
   N    103.98700000    46.15000000    24.15300000
   C    102.85700000    45.60000000    23.42300000
   C    101.50700000    46.27000000    23.63300000
   O    100.50700000    45.62000000    23.34300000
   H    104.51700000    46.89000000    23.71300000
   H    102.72700000    44.58000000    23.78300000
   H    103.12700000    45.63000000    22.37300000
   N    101.44700000    47.49000000    24.15300000
   C    100.25700000    48.31000000    24.29300000
   C    100.43700000    49.64000000    23.57300000
   O    101.44700000    50.29000000    23.86300000
   C     99.94700000    48.64000000    25.75300000
   C     99.43700000    47.41000000    26.49300000
   C     97.94700000    47.12000000    26.30300000
   N     97.44700000    45.90000000    26.50300000
   O     97.11700000    48.01000000    26.11300000
   H    102.33700000    47.88000000    24.45300000
   H     99.40700000    47.81000000    23.83300000
   H     99.31700000    49.53000000    25.79300000
   H    100.87700000    48.98000000    26.20300000
   H     99.45700000    47.67000000    27.55300000
   H    100.04700000    46.53000000    26.32300000
   H     98.03700000    45.08000000    26.59300000
   H     96.44700000    45.80000000    26.45300000
   N     99.50700000    50.12000000    22.75300000
   C     99.50700000    51.42000000    22.11300000
   C     98.82700000    52.54000000    22.89300000
   O     97.60700000    52.68000000    22.90300000
   C     99.09700000    51.37000000    20.64300000
   C     99.31700000    52.64000000    19.83300000
   C     99.71700000    50.20000000    19.88300000
   H     98.71700000    49.49000000    22.64300000
   H    100.53700000    51.75000000    21.95300000
   H     98.03700000    51.14000000    20.73300000
   H     98.80700000    52.52000000    18.87300000
   H     98.76700000    53.47000000    20.28300000
   H    100.34700000    52.99000000    19.75300000
   H    100.79700000    50.31000000    19.97300000
   H     99.47700000    49.17000000    20.17300000
   H     99.40700000    50.27000000    18.84300000
   N     99.53700000    53.56000000    23.37300000
   C     98.98700000    54.77000000    23.93300000
   C     98.66700000    55.83000000    22.89300000
   O     99.24700000    55.84000000    21.80300000
   C    100.04700000    55.25000000    24.93300000
   C     99.71700000    56.58000000    25.59300000
   N     98.78700000    56.56000000    26.54300000
   O    100.15700000    57.65000000    25.18300000
   H    100.54700000    53.51000000    23.40300000
   H     98.12700000    54.56000000    24.56300000
   H    101.06700000    55.38000000    24.58300000
   H    100.11700000    54.44000000    25.66300000
   H     98.46700000    55.67000000    26.88300000
   H     98.46700000    57.43000000    26.94300000
   N     97.74700000    56.77000000    23.12300000
   C     97.45700000    57.91000000    22.28300000
   C     98.61700000    58.69000000    21.69300000
   O     98.56700000    59.10000000    20.53300000
   C     96.49700000    58.86000000    22.99300000
   C     95.99700000    60.01000000    22.14300000
   C     95.20700000    59.70000000    21.03300000
   C     96.35700000    61.33000000    22.43300000
   C     94.78700000    60.65000000    20.09300000
   C     95.89700000    62.34000000    21.57300000
   C     95.12700000    61.96000000    20.45300000
   O     94.79700000    62.99000000    19.61300000
   H     97.16700000    56.73000000    23.94300000
   H     96.99700000    57.37000000    21.45300000
   H     97.04700000    59.37000000    23.78300000
   H     95.62700000    58.31000000    23.34300000
   H     94.96700000    58.65000000    20.89300000
   H     96.95700000    61.57000000    23.30300000
   H     94.23700000    60.43000000    19.18300000
   H     96.12700000    63.36000000    21.81300000
   H     94.99700000    63.87000000    19.92300000
   N     99.72700000    58.87000000    22.41300000
   C    100.82700000    59.68000000    21.94300000
   C    101.74700000    58.82000000    21.08300000
   O    102.26700000    59.25000000    20.06300000
   C    101.55700000    60.41000000    23.07300000
   C    100.72700000    61.49000000    23.76300000
   C    101.27700000    62.03000000    25.07300000
   O    100.89700000    63.17000000    25.42300000
   O    102.15700000    61.34000000    25.64300000
   H     99.78700000    58.60000000    23.39300000
   H    100.50700000    60.42000000    21.21300000
   H    102.44700000    60.91000000    22.67300000
   H    101.83700000    59.57000000    23.70300000
   H     99.68700000    61.18000000    23.89300000
   H    100.66700000    62.26000000    22.99300000
   N    101.83700000    57.53000000    21.40300000
   C    102.40700000    56.61000000    20.43300000
   C    101.67700000    56.40000000    19.12300000
   O    102.40700000    56.10000000    18.17300000
   C    102.70700000    55.28000000    21.11300000
   C    103.45700000    55.33000000    22.44300000
   C    103.63700000    54.01000000    23.18300000
   O    104.75700000    53.46000000    23.26300000
   O    102.62700000    53.31000000    23.43300000
   H    101.21700000    57.21000000    22.13300000
   H    103.39700000    56.94000000    20.10300000
   H    103.16700000    54.60000000    20.39300000
   H    101.76700000    54.80000000    21.37300000
   H    102.83700000    55.98000000    23.05300000
   H    104.44700000    55.77000000    22.27300000
   N    100.36700000    56.66000000    19.08300000
   C     99.44700000    56.44000000    17.99300000
   H     98.57200000    57.07600000    18.12300000
   H     99.93600000    56.68300000    17.05000000
   H     99.13700000    55.39500000    17.98300000
   H     99.99700000    56.88000000    20.00300000
  Ca    103.66700000    51.39000000    24.91000000
   O    103.81700000    53.83000000    26.32000000
   H    104.71700000    53.53000000    26.47000000
   H    103.85700000    54.78000000    26.40000000
   O    102.06700000    51.56000000    27.04000000
   H    102.25700000    52.02000000    27.86000000
   H    101.48700000    50.84000000    27.29000000

Ca 1.00



