%chk=loop4.holoCaM.run42.water1.chk
%nprocshared=20
%mem=10GB
%nosave
#b3lyp/svp scf=(tight,noincore,xqc) Test 
#IOP(5/87=12) Density=Current Pop=(MK,readradii) iop(6/33=2) iop(6/42=6)

loop4.holoCaM.run42.water1 

   -3  1 
   C     71.72000000    48.32000000     4.13000000
   C     71.91000000    49.76000000     3.68000000
   O     71.11000000    50.58000000     4.13000000
   H     70.73900000    47.96700000     3.81200000
   H     72.49300000    47.69400000     3.68300000
   H     71.79100000    48.26600000     5.21600000
   N     72.92000000    50.07000000     2.87000000
   C     73.14000000    51.39000000     2.33000000
   C     72.62000000    51.67000000     0.93000000
   O     73.02000000    51.02000000    -0.03000000
   C     74.63000000    51.72000000     2.42000000
   C     74.81000000    53.23000000     2.40000000
   O     75.06000000    53.88000000     3.44000000
   O     74.51000000    53.85000000     1.36000000
   H     73.46000000    49.32000000     2.46000000
   H     72.49000000    52.10000000     2.84000000
   H     75.15000000    51.28000000     1.57000000
   H     75.06000000    51.41000000     3.37000000
   N     71.78000000    52.70000000     0.77000000
   C     71.10000000    52.96000000    -0.48000000
   C     72.12000000    53.34000000    -1.55000000
   O     71.72000000    53.32000000    -2.71000000
   C     70.05000000    54.06000000    -0.33000000
   C     70.70000000    55.37000000     0.09000000
   C     68.88000000    53.60000000     0.53000000
   C     69.73000000    56.52000000     0.35000000
   H     71.50000000    53.33000000     1.51000000
   H     70.71000000    52.02000000    -0.86000000
   H     69.62000000    54.19000000    -1.32000000
   H     71.38000000    55.69000000    -0.70000000
   H     71.35000000    55.26000000     0.95000000
   H     68.49000000    52.65000000     0.18000000
   H     69.19000000    53.68000000     1.57000000
   H     68.06000000    54.32000000     0.40000000
   H     69.13000000    56.33000000     1.24000000
   H     70.20000000    57.50000000     0.30000000
   H     69.08000000    56.61000000    -0.52000000
   N     73.30000000    53.89000000    -1.27000000
   C     74.25000000    54.28000000    -2.29000000
   C     75.59000000    53.57000000    -2.22000000
   O     76.25000000    53.49000000    -3.26000000
   C     74.48000000    55.78000000    -2.12000000
   C     74.85000000    56.18000000    -0.70000000
   O     73.97000000    56.67000000     0.05000000
   O     76.02000000    56.12000000    -0.27000000
   H     73.54000000    54.06000000    -0.30000000
   H     73.83000000    54.15000000    -3.29000000
   H     73.54000000    56.19000000    -2.49000000
   H     75.29000000    56.09000000    -2.78000000
   N     75.93000000    52.94000000    -1.10000000
   C     76.99000000    51.97000000    -0.92000000
   C     78.16000000    52.48000000    -0.10000000
   O     79.00000000    51.65000000     0.28000000
   H     75.25000000    53.06000000    -0.36000000
   H     77.34000000    51.71000000    -1.93000000
   H     76.64000000    50.99000000    -0.59000000
   N     78.19000000    53.76000000     0.28000000
   C     79.36000000    54.28000000     0.96000000
   C     79.57000000    53.79000000     2.39000000
   O     80.66000000    53.73000000     2.95000000
   C     79.43000000    55.80000000     0.96000000
   C     78.24000000    56.57000000     1.52000000
   O     78.23000000    57.81000000     1.30000000
   O     77.45000000    56.06000000     2.34000000
   H     77.46000000    54.39000000    -0.01000000
   H     80.24000000    53.99000000     0.39000000
   H     79.55000000    56.11000000    -0.07000000
   H     80.33000000    56.16000000     1.47000000
   N     78.53000000    53.34000000     3.09000000
   C     78.66000000    52.74000000     4.40000000
   C     78.51000000    53.64000000     5.62000000
   O     78.86000000    53.23000000     6.72000000
   H     77.58000000    53.36000000     2.77000000
   H     79.60000000    52.20000000     4.54000000
   H     77.89000000    51.97000000     4.55000000
   N     78.00000000    54.84000000     5.34000000
   C     77.54000000    55.78000000     6.34000000
   C     76.21000000    56.42000000     5.94000000
   O     75.78000000    56.52000000     4.80000000
   C     78.58000000    56.90000000     6.39000000
   C     79.97000000    56.38000000     6.71000000
   C     80.78000000    57.63000000     7.00000000
   N     81.56000000    58.18000000     6.06000000
   O     80.73000000    58.17000000     8.11000000
   H     77.88000000    55.05000000     4.36000000
   H     77.44000000    55.31000000     7.31000000
   H     78.24000000    57.59000000     7.17000000
   H     78.57000000    57.44000000     5.45000000
   H     80.37000000    55.70000000     5.95000000
   H     79.95000000    55.92000000     7.70000000
   H     81.48000000    57.81000000     5.12000000
   H     82.25000000    58.89000000     6.26000000
   N     75.42000000    56.86000000     6.92000000
   C     74.21000000    57.64000000     6.73000000
   C     74.56000000    59.11000000     6.58000000
   O     75.28000000    59.61000000     7.44000000
   C     73.15000000    57.43000000     7.82000000
   C     72.67000000    55.98000000     7.91000000
   C     73.39000000    57.92000000     9.24000000
   H     75.82000000    56.99000000     7.84000000
   H     73.70000000    57.24000000     5.85000000
   H     72.27000000    57.98000000     7.51000000
   H     72.42000000    55.55000000     6.94000000
   H     73.36000000    55.36000000     8.47000000
   H     71.76000000    56.01000000     8.52000000
   H     74.23000000    57.29000000     9.55000000
   H     73.67000000    58.97000000     9.23000000
   H     72.48000000    57.76000000     9.81000000
   N     74.16000000    59.77000000     5.49000000
   C     74.15000000    61.21000000     5.36000000
   C     72.84000000    61.75000000     5.90000000
   O     71.92000000    60.95000000     6.11000000
   C     74.39000000    61.64000000     3.91000000
   C     73.13000000    61.64000000     3.05000000
   N     72.41000000    60.53000000     2.88000000
   O     72.69000000    62.74000000     2.73000000
   H     73.72000000    59.22000000     4.77000000
   H     74.95000000    61.70000000     5.92000000
   H     75.16000000    60.98000000     3.51000000
   H     74.80000000    62.63000000     3.73000000
   H     72.85000000    59.65000000     3.09000000
   H     71.80000000    60.61000000     2.08000000
   N     72.77000000    63.08000000     5.99000000
   C     71.54000000    63.79000000     6.28000000
   C     70.27000000    63.19000000     5.69000000
   O     69.23000000    63.06000000     6.34000000
   C     71.66000000    65.24000000     5.81000000
   C     70.42000000    66.05000000     6.12000000
   C     69.94000000    66.14000000     7.43000000
   C     69.85000000    66.72000000     5.03000000
   C     68.83000000    66.96000000     7.67000000
   C     68.68000000    67.45000000     5.25000000
   C     68.18000000    67.54000000     6.56000000
   O     67.10000000    68.32000000     6.84000000
   H     73.54000000    63.61000000     5.62000000
   H     71.43000000    63.77000000     7.36000000
   H     72.01000000    65.40000000     4.79000000
   H     72.36000000    65.70000000     6.51000000
   H     70.53000000    65.71000000     8.22000000
   H     70.28000000    66.72000000     4.04000000
   H     68.52000000    67.12000000     8.69000000
   H     68.09000000    67.94000000     4.48000000
   H     66.85000000    68.86000000     6.09000000
   N     70.30000000    62.95000000     4.38000000
   C     69.17000000    62.50000000     3.60000000
   C     68.75000000    61.06000000     3.89000000
   O     67.65000000    60.70000000     3.49000000
   C     69.39000000    62.66000000     2.10000000
   C     69.46000000    64.14000000     1.73000000
   C     69.27000000    64.23000000     0.22000000
   O     68.12000000    64.09000000    -0.24000000
   O     70.28000000    64.42000000    -0.49000000
   H     70.94000000    63.46000000     3.78000000
   H     68.28000000    63.07000000     3.86000000
   H     68.57000000    62.17000000     1.57000000
   H     70.33000000    62.23000000     1.75000000
   H     70.46000000    64.40000000     2.07000000
   H     68.71000000    64.77000000     2.21000000
   N     69.63000000    60.27000000     4.52000000
   C     69.22000000    58.98000000     5.03000000
   C     68.80000000    59.13000000     6.49000000
   O     67.89000000    58.43000000     6.95000000
   C     70.42000000    58.04000000     5.00000000
   C     70.71000000    57.46000000     3.62000000
   C     72.19000000    57.15000000     3.47000000
   O     73.14000000    57.95000000     3.54000000
   O     72.55000000    55.99000000     3.18000000
   H     70.53000000    60.52000000     4.88000000
   H     68.44000000    58.52000000     4.42000000
   H     70.29000000    57.16000000     5.62000000
   H     71.31000000    58.60000000     5.29000000
   H     70.59000000    58.23000000     2.86000000
   H     70.14000000    56.54000000     3.44000000
   N     69.25000000    60.17000000     7.19000000
   C     69.01000000    60.40000000     8.60000000
   H     67.96200000    60.20200000     8.82700000
   H     69.64100000    59.73500000     9.19000000
   H     69.24500000    61.43600000     8.84500000
   H     69.98000000    60.71000000     6.76000000
  Ca     74.88000000    56.24000000     2.38000000
   O     75.61000000    58.70000000     1.73000000
   H     76.52000000    58.62000000     1.46000000
   H     75.28000000    59.45000000     1.23000000

Ca 1.00



