%chk=loop2.holoCaM-CaMKII.run43.water1.chk
%nprocshared=20
%mem=10GB
%nosave
#b3lyp/svp scf=(tight,noincore,xqc) Test 
#IOP(5/87=12) Density=Current Pop=(MK,readradii) iop(6/33=2) iop(6/42=6)

loop2.holoCaM-CaMKII.run43.water1 

   -2  1 
   C    -22.15800000    19.46000000    -1.17800000
   C    -22.38800000    19.63000000    -2.67800000
   O    -22.56800000    20.74000000    -3.16800000
   H    -21.42800000    20.19400000    -0.83800000
   H    -23.09800000    19.61000000    -0.64600000
   H    -21.78300000    18.45600000    -0.97900000
   N    -22.32800000    18.61000000    -3.53800000
   C    -22.67800000    18.63000000    -4.93800000
   C    -24.04800000    19.23000000    -5.19800000
   O    -25.02800000    18.93000000    -4.49800000
   C    -22.58800000    17.23000000    -5.54800000
   C    -22.95800000    17.16000000    -7.02800000
   O    -23.68800000    16.20000000    -7.38800000
   O    -22.48800000    18.01000000    -7.80800000
   H    -22.24800000    17.69000000    -3.11800000
   H    -21.87800000    19.20000000    -5.42800000
   H    -23.24800000    16.56000000    -4.99800000
   H    -21.55800000    16.89000000    -5.54800000
   N    -24.22800000    19.76000000    -6.40800000
   C    -25.47800000    20.15000000    -7.02800000
   C    -25.65800000    19.70000000    -8.47800000
   O    -26.71800000    20.01000000    -8.99800000
   C    -25.61800000    21.64000000    -6.75800000
   H    -23.37800000    20.10000000    -6.83800000
   H    -26.24800000    19.68000000    -6.41800000
   H    -24.84800000    22.21000000    -7.27800000
   H    -26.60800000    21.96000000    -7.06800000
   H    -25.56800000    21.90000000    -5.69800000
   N    -24.65800000    19.11000000    -9.13800000
   C    -24.76800000    18.74000000   -10.53800000
   C    -24.54800000    17.28000000   -10.92800000
   O    -25.19800000    16.90000000   -11.89800000
   C    -23.75800000    19.56000000   -11.32800000
   C    -22.35800000    19.55000000   -10.73800000
   O    -21.77800000    18.47000000   -10.47800000
   O    -21.83800000    20.63000000   -10.38800000
   H    -23.75800000    19.00000000    -8.68800000
   H    -25.72800000    18.99000000   -10.99800000
   H    -24.18800000    20.56000000   -11.42800000
   H    -23.63800000    19.21000000   -12.35800000
   N    -23.67800000    16.54000000   -10.23800000
   C    -23.49800000    15.14000000   -10.55800000
   C    -22.06800000    14.78000000   -10.95800000
   O    -21.79800000    13.60000000   -11.12800000
   H    -23.20800000    17.01000000    -9.47800000
   H    -24.14800000    14.82000000   -11.37800000
   H    -23.81800000    14.53000000    -9.71800000
   N    -21.21800000    15.77000000   -11.21800000
   C    -19.95800000    15.63000000   -11.91800000
   C    -18.82800000    14.93000000   -11.17800000
   O    -17.81800000    14.54000000   -11.75800000
   C    -19.64800000    17.01000000   -12.48800000
   C    -19.15800000    18.03000000   -11.45800000
   N    -18.85800000    19.27000000   -11.86800000
   O    -18.79800000    17.69000000   -10.33800000
   H    -21.40800000    16.63000000   -10.72800000
   H    -20.18800000    14.95000000   -12.74800000
   H    -20.48800000    17.41000000   -13.05800000
   H    -18.83800000    16.90000000   -13.20800000
   H    -19.10800000    19.58000000   -12.79800000
   H    -18.51800000    19.96000000   -11.21800000
   N    -18.92800000    14.71000000    -9.86800000
   C    -17.96800000    14.12000000    -8.94800000
   C    -16.87800000    15.05000000    -8.41800000
   O    -16.05800000    14.59000000    -7.62800000
   H    -19.84800000    14.88000000    -9.49800000
   H    -17.52800000    13.22000000    -9.37800000
   H    -18.57800000    13.91000000    -8.06800000
   N    -16.91800000    16.34000000    -8.74800000
   C    -16.00800000    17.39000000    -8.33800000
   C    -16.56800000    18.59000000    -7.58800000
   O    -17.69800000    19.02000000    -7.77800000
   C    -15.17800000    17.83000000    -9.54800000
   C    -14.29800000    16.68000000   -10.04800000
   O    -15.91800000    18.33000000   -10.63800000
   H    -17.70800000    16.54000000    -9.34800000
   H    -15.29800000    16.94000000    -7.64800000
   H    -14.52800000    18.63000000    -9.20800000
   H    -16.71800000    18.76000000   -10.34800000
   H    -13.47800000    16.45000000    -9.37800000
   H    -14.87800000    15.76000000   -10.07800000
   H    -13.80800000    16.95000000   -10.97800000
   N    -15.73800000    19.17000000    -6.71800000
   C    -15.97800000    20.47000000    -6.10800000
   C    -15.88800000    21.55000000    -7.16800000
   O    -14.83800000    21.82000000    -7.74800000
   C    -15.15800000    20.61000000    -4.82800000
   C    -15.62800000    19.83000000    -3.60800000
   C    -14.89800000    22.08000000    -4.47800000
   C    -16.85800000    20.28000000    -2.82800000
   H    -14.89800000    18.64000000    -6.53800000
   H    -16.96800000    20.35000000    -5.67800000
   H    -14.18800000    20.18000000    -5.06800000
   H    -14.80800000    19.75000000    -2.88800000
   H    -15.89800000    18.81000000    -3.88800000
   H    -14.38800000    22.60000000    -5.28800000
   H    -15.85800000    22.54000000    -4.25800000
   H    -14.25800000    22.15000000    -3.60800000
   H    -17.01800000    19.70000000    -1.91800000
   H    -16.53800000    21.21000000    -2.34800000
   H    -17.79800000    20.35000000    -3.37800000
   N    -17.02800000    22.21000000    -7.38800000
   C    -17.18800000    23.44000000    -8.13800000
   C    -17.27800000    24.60000000    -7.14800000
   O    -17.44800000    24.44000000    -5.93800000
   C    -18.36800000    23.41000000    -9.10800000
   C    -18.33800000    22.21000000   -10.04800000
   O    -18.67800000    21.09000000    -9.61800000
   O    -17.89800000    22.38000000   -11.19800000
   H    -17.87800000    21.93000000    -6.91800000
   H    -16.24800000    23.53000000    -8.66800000
   H    -18.39800000    24.38000000    -9.61800000
   H    -19.25800000    23.36000000    -8.48800000
   N    -17.11800000    25.83000000    -7.62800000
   C    -17.01800000    26.97000000    -6.74800000
   C    -18.19800000    27.25000000    -5.83800000
   O    -17.86800000    27.31000000    -4.64800000
   C    -16.56800000    28.17000000    -7.58800000
   C    -16.14800000    29.40000000    -6.81800000
   C    -16.95800000    30.54000000    -6.72800000
   C    -14.95800000    29.42000000    -6.07800000
   C    -16.61800000    31.61000000    -5.87800000
   C    -14.60800000    30.48000000    -5.24800000
   C    -15.47800000    31.57000000    -5.06800000
   H    -16.87800000    25.98000000    -8.59800000
   H    -16.18800000    26.66000000    -6.11800000
   H    -17.41800000    28.56000000    -8.13800000
   H    -15.90800000    27.89000000    -8.40800000
   H    -17.78800000    30.82000000    -7.35800000
   H    -14.24800000    28.61000000    -6.19800000
   H    -17.32800000    32.41000000    -5.75800000
   H    -13.77800000    30.31000000    -4.56800000
   H    -15.28800000    32.33000000    -4.31800000
   N    -19.48800000    27.28000000    -6.19800000
   C    -20.61800000    27.25000000    -5.29800000
   C    -20.64800000    26.12000000    -4.27800000
   O    -21.44800000    26.23000000    -3.35800000
   C    -21.86800000    27.36000000    -6.16800000
   C    -21.34800000    28.05000000    -7.42800000
   C    -19.99800000    27.34000000    -7.54800000
   H    -20.50800000    28.16000000    -4.70800000
   H    -22.17800000    26.37000000    -6.49800000
   H    -22.65800000    27.85000000    -5.59800000
   H    -21.98800000    27.81000000    -8.26800000
   H    -21.23800000    29.10000000    -7.15800000
   H    -20.02800000    26.29000000    -7.84800000
   H    -19.28800000    27.89000000    -8.16800000
   N    -19.86800000    25.07000000    -4.54800000
   C    -19.78800000    23.97000000    -3.60800000
   C    -18.63800000    24.23000000    -2.64800000
   O    -18.69800000    23.97000000    -1.44800000
   C    -19.67800000    22.66000000    -4.36800000
   C    -20.56800000    22.68000000    -5.59800000
   C    -20.58800000    21.30000000    -6.25800000
   O    -21.30800000    21.10000000    -7.25800000
   O    -19.74800000    20.46000000    -5.87800000
   H    -19.22800000    24.99000000    -5.32800000
   H    -20.77800000    24.03000000    -3.15800000
   H    -19.92800000    21.80000000    -3.73800000
   H    -18.62800000    22.53000000    -4.62800000
   H    -20.17800000    23.36000000    -6.35800000
   H    -21.58800000    22.93000000    -5.28800000
   N    -17.48800000    24.74000000    -3.10800000
   C    -16.36800000    25.23000000    -2.32800000
   H    -15.55400000    25.50800000    -2.99700000
   H    -16.67900000    26.10300000    -1.75300000
   H    -16.02800000    24.44900000    -1.64800000
   H    -17.37800000    24.89000000    -4.09800000
  Ca    -20.27800000    19.18000000    -8.52800000
   O    -19.82800000    16.69000000    -7.64800000
   H    -20.12800000    15.78000000    -7.58800000
   H    -19.47800000    16.88000000    -6.77800000

Ca 1.00



