%chk=loop2.holoCaM-CaMKII.run80.water2.chk
%nprocshared=20
%mem=10GB
%nosave
#b3lyp/svp scf=(tight,noincore,xqc) Test 
#IOP(5/87=12) Density=Current Pop=(MK,readradii) iop(6/33=2) iop(6/42=6)

loop2.holoCaM-CaMKII.run80.water2 

   -2  1 
   C     23.10000000    61.21000000    81.49500000
   C     23.21000000    62.64000000    80.97500000
   O     23.30000000    63.62000000    81.71500000
   H     22.09400000    60.83300000    81.30900000
   H     23.82500000    60.57900000    80.98100000
   H     23.30100000    61.19600000    82.56600000
   N     23.34000000    62.73000000    79.65500000
   C     23.65000000    63.93000000    78.89500000
   C     22.50000000    64.94000000    78.89500000
   O     21.34000000    64.56000000    78.75500000
   C     23.99000000    63.57000000    77.45500000
   C     24.60000000    64.72000000    76.68500000
   O     25.33000000    65.59000000    77.21500000
   O     24.34000000    64.72000000    75.45500000
   H     23.28000000    61.89000000    79.10500000
   H     24.53000000    64.44000000    79.28500000
   H     23.12000000    63.21000000    76.90500000
   H     24.77000000    62.80000000    77.44500000
   N     22.84000000    66.23000000    78.92500000
   C     22.06000000    67.39000000    78.55500000
   C     22.64000000    68.45000000    77.62500000
   O     21.87000000    69.32000000    77.22500000
   C     21.54000000    68.06000000    79.81500000
   H     23.82000000    66.38000000    79.12500000
   H     21.26000000    67.03000000    77.91500000
   H     22.30000000    68.54000000    80.42500000
   H     20.78000000    68.82000000    79.62500000
   H     21.05000000    67.30000000    80.43500000
   N     23.87000000    68.30000000    77.12500000
   C     24.52000000    69.29000000    76.28500000
   C     24.96000000    68.81000000    74.90500000
   O     24.92000000    69.62000000    73.98500000
   C     25.70000000    69.94000000    77.00500000
   C     26.71000000    68.92000000    77.48500000
   O     27.19000000    68.09000000    76.68500000
   O     26.93000000    68.83000000    78.71500000
   H     24.45000000    67.51000000    77.33500000
   H     23.83000000    70.09000000    76.05500000
   H     25.37000000    70.67000000    77.75500000
   H     26.17000000    70.55000000    76.22500000
   N     25.25000000    67.52000000    74.66500000
   C     25.92000000    67.10000000    73.45500000
   C     27.38000000    67.43000000    73.18500000
   O     27.80000000    67.39000000    72.02500000
   H     25.27000000    66.85000000    75.41500000
   H     25.45000000    67.58000000    72.60500000
   H     25.77000000    66.02000000    73.37500000
   N     28.28000000    67.67000000    74.14500000
   C     29.67000000    67.99000000    73.89500000
   C     30.53000000    66.76000000    73.60500000
   O     31.71000000    66.80000000    73.28500000
   C     30.21000000    68.86000000    75.02500000
   C     30.20000000    68.23000000    76.40500000
   N     30.47000000    68.96000000    77.48500000
   O     29.82000000    67.07000000    76.60500000
   H     27.89000000    67.80000000    75.06500000
   H     29.76000000    68.63000000    73.01500000
   H     29.55000000    69.73000000    75.12500000
   H     31.21000000    69.24000000    74.77500000
   H     30.57000000    69.97000000    77.45500000
   H     30.28000000    68.56000000    78.39500000
   N     29.90000000    65.59000000    73.59500000
   C     30.61000000    64.35000000    73.35500000
   C     31.37000000    63.78000000    74.53500000
   O     32.18000000    62.87000000    74.33500000
   H     28.95000000    65.46000000    73.90500000
   H     31.26000000    64.52000000    72.49500000
   H     29.98000000    63.54000000    72.98500000
   N     31.12000000    64.30000000    75.73500000
   C     31.86000000    63.93000000    76.92500000
   C     30.96000000    63.75000000    78.13500000
   O     29.93000000    64.43000000    78.08500000
   C     32.99000000    64.90000000    77.25500000
   C     34.18000000    64.65000000    76.33500000
   O     32.68000000    66.26000000    77.00500000
   H     30.48000000    65.09000000    75.75500000
   H     32.31000000    62.95000000    76.79500000
   H     33.43000000    64.73000000    78.23500000
   H     31.81000000    66.26000000    76.60500000
   H     33.90000000    64.96000000    75.33500000
   H     34.90000000    65.41000000    76.63500000
   H     34.52000000    63.62000000    76.46500000
   N     31.40000000    62.99000000    79.14500000
   C     30.73000000    62.99000000    80.42500000
   C     31.34000000    64.19000000    81.13500000
   O     32.56000000    64.31000000    81.27500000
   C     30.85000000    61.70000000    81.22500000
   C     31.20000000    60.42000000    80.45500000
   C     29.62000000    61.54000000    82.10500000
   C     31.74000000    59.28000000    81.30500000
   H     32.24000000    62.44000000    79.01500000
   H     29.66000000    63.10000000    80.24500000
   H     31.62000000    61.88000000    81.96500000
   H     31.93000000    60.71000000    79.70500000
   H     30.30000000    60.08000000    79.94500000
   H     29.46000000    62.37000000    82.78500000
   H     28.74000000    61.28000000    81.51500000
   H     29.76000000    60.77000000    82.86500000
   H     32.33000000    58.50000000    80.83500000
   H     32.33000000    59.73000000    82.10500000
   H     30.83000000    58.84000000    81.71500000
   N     30.48000000    65.14000000    81.49500000
   C     30.69000000    66.18000000    82.48500000
   C     30.38000000    65.82000000    83.92500000
   O     29.80000000    64.79000000    84.27500000
   C     29.94000000    67.45000000    82.07500000
   C     29.99000000    67.86000000    80.60500000
   O     29.30000000    67.16000000    79.84500000
   O     30.68000000    68.85000000    80.26500000
   H     29.56000000    65.03000000    81.09500000
   H     31.75000000    66.44000000    82.50500000
   H     30.52000000    68.21000000    82.58500000
   H     28.91000000    67.51000000    82.42500000
   N     30.82000000    66.62000000    84.89500000
   C     30.65000000    66.38000000    86.31500000
   C     29.22000000    66.21000000    86.82500000
   O     29.15000000    65.28000000    87.62500000
   C     31.41000000    67.40000000    87.15500000
   C     31.63000000    67.09000000    88.61500000
   C     31.32000000    68.06000000    89.57500000
   C     32.10000000    65.82000000    88.96500000
   C     31.51000000    67.68000000    90.91500000
   C     32.29000000    65.51000000    90.31500000
   C     32.04000000    66.45000000    91.32500000
   H     31.27000000    67.48000000    84.60500000
   H     31.13000000    65.42000000    86.50500000
   H     30.90000000    68.35000000    87.00500000
   H     32.39000000    67.51000000    86.69500000
   H     31.02000000    69.06000000    89.30500000
   H     32.21000000    65.07000000    88.20500000
   H     31.37000000    68.37000000    91.73500000
   H     32.54000000    64.50000000    90.59500000
   H     32.36000000    66.13000000    92.30500000
   N     28.15000000    66.87000000    86.39500000
   C     26.80000000    66.59000000    86.85500000
   C     26.29000000    65.24000000    86.36500000
   O     25.52000000    64.57000000    87.04500000
   C     25.92000000    67.74000000    86.38500000
   C     27.03000000    68.77000000    86.20500000
   C     28.28000000    68.10000000    85.64500000
   H     26.81000000    66.50000000    87.94500000
   H     25.45000000    67.53000000    85.42500000
   H     25.20000000    67.99000000    87.16500000
   H     26.81000000    69.63000000    85.56500000
   H     27.31000000    69.18000000    87.17500000
   H     28.20000000    68.03000000    84.55500000
   H     29.11000000    68.77000000    85.88500000
   N     26.79000000    64.85000000    85.18500000
   C     26.39000000    63.66000000    84.45500000
   C     27.15000000    62.44000000    84.94500000
   O     26.49000000    61.42000000    85.16500000
   C     26.71000000    63.94000000    82.98500000
   C     26.22000000    65.28000000    82.45500000
   C     26.53000000    65.27000000    80.96500000
   O     25.93000000    66.14000000    80.28500000
   O     27.41000000    64.53000000    80.48500000
   H     27.51000000    65.40000000    84.72500000
   H     25.34000000    63.49000000    84.66500000
   H     26.32000000    63.12000000    82.37500000
   H     27.78000000    63.87000000    82.81500000
   H     26.85000000    66.06000000    82.86500000
   H     25.15000000    65.44000000    82.58500000
   N     28.43000000    62.55000000    85.32500000
   C     29.19000000    61.61000000    86.12500000
   H     30.10600000    62.08700000    86.47200000
   H     28.59500000    61.29900000    86.98400000
   H     29.44100000    60.73800000    85.52100000
   H     28.90000000    63.40000000    85.05500000
  Ca     27.71000000    65.82000000    78.21000000
   O     27.12000000    62.96000000    78.33000000
   H     26.80000000    62.96000000    79.23000000
   H     26.97000000    62.06000000    78.02000000
   O     27.47000000    64.85000000    75.62000000
   H     26.56000000    65.14000000    75.55000000
   H     27.46000000    63.95000000    75.30000000

Ca 1.00



