%chk=loop1.apoCaM-CA-Ng.Init293.run68.water5.chk
%nprocshared=20
%mem=10GB
%nosave
#b3lyp/svp scf=(tight,noincore,xqc) Test 
#IOP(5/87=12) Density=Current Pop=(MK,readradii) iop(6/33=2) iop(6/42=6)

loop1.apoCaM-CA-Ng.Init293.run68.water5 

   0  1 
   C     97.44000000    74.85000000    66.54000000
   C     98.66000000    75.12000000    67.41000000
   O     99.80000000    75.06000000    66.95000000
   H     96.64900000    75.55500000    66.79600000
   H     97.70800000    74.97100000    65.49000000
   H     97.08900000    73.83200000    66.71100000
   N     98.35000000    75.25000000    68.71000000
   C     99.33000000    75.66000000    69.68000000
   C    100.22000000    74.51000000    70.14000000
   O    101.14000000    74.82000000    70.89000000
   C     98.60000000    76.28000000    70.87000000
   C     97.47000000    75.41000000    71.39000000
   O     96.39000000    75.48000000    70.76000000
   O     97.69000000    74.70000000    72.39000000
   H     97.36000000    75.42000000    68.86000000
   H    100.05000000    76.35000000    69.24000000
   H     98.12000000    77.21000000    70.55000000
   H     99.32000000    76.49000000    71.66000000
   N     99.94000000    73.28000000    69.70000000
   C    100.59000000    72.04000000    70.06000000
   C    101.77000000    71.77000000    69.15000000
   O    101.67000000    72.01000000    67.95000000
   C     99.63000000    70.85000000    70.13000000
   C     98.34000000    71.10000000    70.91000000
   C     98.64000000    71.08000000    72.40000000
   C     97.36000000    71.00000000    73.22000000
   N     96.42000000    72.10000000    72.95000000
   H     99.29000000    73.31000000    68.93000000
   H    101.00000000    72.15000000    71.07000000
   H    100.10000000    70.00000000    70.62000000
   H     99.33000000    70.61000000    69.11000000
   H     97.65000000    70.31000000    70.63000000
   H     97.88000000    72.02000000    70.54000000
   H     99.15000000    72.04000000    72.51000000
   H     99.33000000    70.28000000    72.66000000
   H     97.62000000    71.01000000    74.28000000
   H     96.86000000    70.07000000    72.94000000
   H     96.00000000    72.10000000    72.04000000
   H     95.76000000    72.30000000    73.70000000
   H     96.95000000    72.95000000    73.05000000
   N    102.95000000    71.42000000    69.68000000
   C    103.43000000    71.61000000    71.03000000
   C    104.93000000    71.86000000    71.01000000
   O    105.75000000    71.10000000    71.53000000
   C    102.97000000    70.38000000    71.82000000
   C    102.72000000    70.63000000    73.30000000
   O    103.01000000    71.77000000    73.73000000
   O    102.26000000    69.72000000    74.02000000
   H    103.58000000    71.12000000    68.95000000
   H    102.95000000    72.54000000    71.33000000
   H    103.59000000    69.50000000    71.67000000
   H    102.00000000    70.01000000    71.49000000
   N    105.41000000    72.93000000    70.37000000
   C    104.71000000    73.88000000    69.54000000
   C    105.64000000    74.78000000    68.74000000
   O    106.83000000    74.83000000    69.05000000
   H    106.42000000    72.99000000    70.38000000
   H    104.26000000    74.53000000    70.30000000
   H    103.95000000    73.42000000    68.91000000
   N    105.19000000    75.53000000    67.74000000
   C    103.93000000    75.47000000    67.02000000
   C    103.35000000    76.86000000    66.81000000
   O    104.03000000    77.83000000    66.50000000
   C    104.12000000    74.74000000    65.69000000
   C    104.93000000    73.45000000    65.72000000
   O    104.25000000    72.43000000    65.94000000
   O    106.17000000    73.44000000    65.56000000
   H    105.84000000    76.21000000    67.36000000
   H    103.23000000    74.89000000    67.61000000
   H    104.63000000    75.41000000    65.00000000
   H    103.12000000    74.50000000    65.32000000
   N    102.01000000    76.93000000    66.76000000
   C    101.33000000    78.08000000    66.20000000
   C    101.28000000    78.04000000    64.68000000
   O    101.07000000    79.05000000    64.02000000
   H    101.39000000    76.23000000    67.12000000
   H    101.79000000    79.03000000    66.49000000
   H    100.29000000    78.02000000    66.50000000
   N    101.52000000    76.87000000    64.08000000
   C    101.71000000    76.78000000    62.64000000
   C    100.98000000    75.53000000    62.17000000
   O    100.84000000    74.62000000    62.98000000
   C    103.20000000    76.74000000    62.30000000
   C    103.98000000    77.94000000    62.81000000
   O    103.32000000    77.03000000    60.92000000
   H    101.49000000    76.04000000    64.65000000
   H    101.18000000    77.59000000    62.15000000
   H    103.76000000    75.84000000    62.56000000
   H    103.75000000    76.22000000    60.64000000
   H    103.96000000    77.80000000    63.89000000
   H    104.97000000    78.14000000    62.41000000
   H    103.40000000    78.84000000    62.56000000
   N    100.57000000    75.37000000    60.91000000
   C     99.99000000    74.15000000    60.39000000
   C    100.41000000    73.89000000    58.95000000
   O    100.27000000    74.75000000    58.08000000
   C     98.48000000    74.19000000    60.60000000
   C     97.71000000    72.99000000    60.05000000
   C     97.82000000    75.44000000    60.04000000
   C     98.05000000    71.64000000    60.70000000
   H    100.61000000    76.15000000    60.27000000
   H    100.38000000    73.35000000    61.02000000
   H     98.28000000    74.27000000    61.67000000
   H     97.86000000    72.88000000    58.98000000
   H     96.66000000    73.22000000    60.20000000
   H     98.06000000    76.32000000    60.64000000
   H     98.17000000    75.61000000    59.02000000
   H     96.74000000    75.33000000    60.03000000
   H     97.31000000    70.84000000    60.69000000
   H     98.96000000    71.25000000    60.24000000
   H     98.27000000    71.76000000    61.76000000
   N    101.02000000    72.74000000    58.65000000
   C    101.51000000    72.30000000    57.36000000
   C    101.07000000    70.89000000    57.00000000
   O    101.12000000    70.43000000    55.86000000
   C    102.95000000    72.72000000    57.05000000
   C    104.00000000    71.85000000    57.73000000
   O    103.19000000    74.04000000    57.48000000
   H    101.08000000    72.04000000    59.37000000
   H    101.02000000    72.91000000    56.60000000
   H    103.10000000    72.69000000    55.98000000
   H    102.72000000    74.67000000    56.93000000
   H    103.91000000    70.80000000    57.47000000
   H    105.01000000    72.07000000    57.39000000
   H    103.95000000    71.83000000    58.82000000
   N    100.61000000    70.13000000    58.00000000
   C    100.39000000    68.71000000    57.91000000
   C    101.58000000    67.82000000    57.59000000
   O    102.67000000    68.28000000    57.25000000
   C     99.16000000    68.38000000    57.07000000
   C     97.99000000    69.31000000    57.37000000
   O     98.72000000    67.06000000    57.34000000
   H    100.78000000    70.49000000    58.93000000
   H    100.17000000    68.55000000    58.96000000
   H     99.48000000    68.37000000    56.03000000
   H     97.85000000    67.22000000    57.70000000
   H     97.04000000    69.01000000    56.93000000
   H     97.80000000    69.56000000    58.41000000
   H     98.06000000    70.21000000    56.76000000
   N    101.49000000    66.51000000    57.84000000
   C    102.50000000    65.52000000    57.57000000
   C    103.25000000    64.85000000    58.72000000
   O    104.32000000    64.38000000    58.36000000
   C    101.97000000    64.43000000    56.63000000
   C    101.60000000    64.91000000    55.23000000
   C    102.83000000    65.23000000    54.40000000
   C    102.52000000    65.40000000    52.91000000
   N    101.70000000    66.59000000    52.64000000
   H    100.65000000    66.15000000    58.27000000
   H    103.26000000    66.07000000    57.02000000
   H    101.14000000    63.87000000    57.06000000
   H    102.72000000    63.66000000    56.49000000
   H    100.82000000    65.67000000    55.14000000
   H    101.18000000    64.00000000    54.80000000
   H    103.52000000    64.42000000    54.61000000
   H    103.37000000    66.11000000    54.77000000
   H    102.10000000    64.49000000    52.49000000
   H    103.52000000    65.56000000    52.52000000
   H    100.76000000    66.43000000    52.98000000
   H    102.13000000    67.41000000    53.05000000
   H    101.70000000    66.68000000    51.63000000
   N    102.94000000    64.89000000    60.01000000
   C    101.82000000    65.35000000    60.81000000
   C    100.48000000    65.16000000    60.10000000
   O     99.67000000    66.07000000    59.97000000
   C    102.02000000    66.73000000    61.43000000
   C    101.15000000    67.19000000    62.60000000
   C    101.76000000    68.27000000    63.47000000
   O    101.51000000    69.45000000    63.17000000
   O    102.43000000    67.99000000    64.49000000
   H    103.68000000    64.55000000    60.61000000
   H    101.86000000    64.73000000    61.71000000
   H    101.99000000    67.46000000    60.63000000
   H    103.01000000    66.75000000    61.89000000
   H    100.89000000    66.29000000    63.16000000
   H    100.22000000    67.57000000    62.17000000
   N    100.22000000    63.90000000    59.73000000
   C     98.98000000    63.49000000    59.10000000
   H     98.23400000    64.27500000    59.22300000
   H     99.15200000    63.31600000    58.03800000
   H     98.62100000    62.57200000    59.56600000
   H    100.96000000    63.24000000    59.89000000
  Ca    102.26400000    70.87000000    65.21000000
   O    100.63400000    72.98000000    65.06000000
   H    100.09400000    73.48000000    65.67000000
   H    100.78400000    73.57000000    64.32000000
   O    102.75400000    72.29000000    62.93000000
   H    103.61400000    72.46000000    62.54000000
   H    102.22400000    71.97000000    62.20000000
   O     99.85400000    69.98000000    66.21000000
   H     99.37400000    69.15000000    66.11000000
   H     99.17400000    70.63000000    66.39000000
   O    104.45400000    69.68000000    63.91000000
   H    104.25400000    68.76000000    64.10000000
   H    105.37400000    69.67000000    63.63000000
   O    103.31400000    69.30000000    67.10000000
   H    103.27400000    68.42000000    67.47000000
   H    104.09400000    69.70000000    67.50000000

Ca 1.00



