%chk=loop1.apoCaM-CA-Ng.Init293.run27.water4.chk
%nprocshared=20
%mem=10GB
%nosave
#b3lyp/svp scf=(tight,noincore,xqc) Test 
#IOP(5/87=12) Density=Current Pop=(MK,readradii) iop(6/33=2) iop(6/42=6)

loop1.apoCaM-CA-Ng.Init293.run27.water4 

   0  1 
   C     35.26000000   -15.21000000    29.38000000
   C     35.58000000   -16.69000000    29.51000000
   O     36.36000000   -17.18000000    28.69000000
   H     34.32500000   -14.99400000    29.89600000
   H     36.06400000   -14.62300000    29.82500000
   H     35.16100000   -14.95000000    28.32600000
   N     35.16000000   -17.34000000    30.59000000
   C     35.51000000   -18.71000000    30.93000000
   C     34.34000000   -19.67000000    30.84000000
   O     34.46000000   -20.86000000    31.13000000
   C     36.07000000   -18.69000000    32.35000000
   C     35.16000000   -18.14000000    33.43000000
   O     34.26000000   -17.36000000    33.04000000
   O     35.33000000   -18.55000000    34.60000000
   H     34.64000000   -16.83000000    31.29000000
   H     36.20000000   -19.09000000    30.17000000
   H     36.98000000   -18.10000000    32.43000000
   H     36.35000000   -19.71000000    32.62000000
   N     33.16000000   -19.19000000    30.41000000
   C     31.88000000   -19.84000000    30.62000000
   C     30.90000000   -19.79000000    29.46000000
   O     30.07000000   -18.89000000    29.32000000
   C     31.27000000   -19.15000000    31.83000000
   C     31.83000000   -19.71000000    33.14000000
   C     31.14000000   -19.21000000    34.40000000
   C     31.94000000   -19.61000000    35.63000000
   N     33.05000000   -18.70000000    35.95000000
   H     33.19000000   -18.25000000    30.05000000
   H     32.07000000   -20.90000000    30.81000000
   H     30.21000000   -19.38000000    31.89000000
   H     31.46000000   -18.08000000    31.83000000
   H     32.88000000   -19.40000000    33.16000000
   H     31.74000000   -20.80000000    33.19000000
   H     30.15000000   -19.66000000    34.42000000
   H     31.10000000   -18.12000000    34.37000000
   H     32.25000000   -20.65000000    35.56000000
   H     31.32000000   -19.69000000    36.53000000
   H     33.62000000   -18.75000000    35.11000000
   H     32.79000000   -17.73000000    36.02000000
   H     33.59000000   -18.90000000    36.78000000
   N     30.99000000   -20.68000000    28.47000000
   C     31.62000000   -21.98000000    28.42000000
   C     31.28000000   -23.09000000    29.40000000
   O     30.82000000   -22.78000000    30.50000000
   C     33.13000000   -21.90000000    28.16000000
   C     33.57000000   -20.90000000    27.11000000
   O     34.80000000   -20.67000000    26.99000000
   O     32.74000000   -20.29000000    26.40000000
   H     30.61000000   -20.33000000    27.60000000
   H     31.28000000   -22.40000000    27.47000000
   H     33.57000000   -22.85000000    27.87000000
   H     33.49000000   -21.56000000    29.14000000
   N     31.44000000   -24.40000000    29.18000000
   C     31.91000000   -25.08000000    27.99000000
   C     32.85000000   -26.25000000    28.24000000
   O     32.42000000   -27.22000000    28.87000000
   H     31.21000000   -25.02000000    29.94000000
   H     32.36000000   -24.46000000    27.22000000
   H     31.04000000   -25.50000000    27.49000000
   N     34.13000000   -26.19000000    27.87000000
   C     34.91000000   -25.23000000    27.10000000
   C     35.71000000   -24.20000000    27.88000000
   O     36.18000000   -23.21000000    27.34000000
   C     35.86000000   -25.91000000    26.12000000
   C     36.76000000   -27.01000000    26.67000000
   O     37.56000000   -27.65000000    25.95000000
   O     36.61000000   -27.27000000    27.88000000
   H     34.65000000   -27.03000000    28.09000000
   H     34.19000000   -24.72000000    26.46000000
   H     36.44000000   -25.21000000    25.51000000
   H     35.19000000   -26.38000000    25.41000000
   N     35.87000000   -24.44000000    29.19000000
   C     36.26000000   -23.34000000    30.04000000
   C     37.74000000   -23.01000000    30.20000000
   O     38.11000000   -22.31000000    31.13000000
   H     35.34000000   -25.20000000    29.60000000
   H     35.95000000   -23.65000000    31.04000000
   H     35.86000000   -22.39000000    29.67000000
   N     38.60000000   -23.38000000    29.25000000
   C     39.87000000   -22.72000000    29.03000000
   C     39.77000000   -21.34000000    28.38000000
   O     39.11000000   -21.26000000    27.35000000
   C     40.82000000   -23.63000000    28.26000000
   C     42.21000000   -23.10000000    27.96000000
   O     40.14000000   -23.97000000    27.07000000
   H     38.30000000   -24.05000000    28.56000000
   H     40.32000000   -22.51000000    30.01000000
   H     40.89000000   -24.56000000    28.83000000
   H     40.54000000   -24.69000000    26.57000000
   H     42.26000000   -22.12000000    28.44000000
   H     42.98000000   -23.73000000    28.40000000
   H     42.39000000   -23.03000000    26.88000000
   N     40.37000000   -20.32000000    28.99000000
   C     40.54000000   -18.98000000    28.48000000
   C     42.03000000   -18.74000000    28.30000000
   O     42.73000000   -18.83000000    29.31000000
   C     39.78000000   -17.94000000    29.31000000
   C     40.23000000   -16.56000000    28.86000000
   C     40.16000000   -18.08000000    30.78000000
   C     39.30000000   -15.41000000    29.23000000
   H     40.90000000   -20.54000000    29.82000000
   H     40.11000000   -18.86000000    27.48000000
   H     38.72000000   -18.06000000    29.07000000
   H     40.43000000   -16.50000000    27.78000000
   H     41.12000000   -16.36000000    29.45000000
   H     39.72000000   -19.01000000    31.13000000
   H     41.23000000   -18.12000000    30.97000000
   H     39.78000000   -17.29000000    31.42000000
   H     38.93000000   -15.43000000    30.26000000
   H     39.95000000   -14.54000000    29.15000000
   H     38.45000000   -15.35000000    28.56000000
   N     42.51000000   -18.43000000    27.09000000
   C     43.86000000   -18.07000000    26.70000000
   C     43.92000000   -17.30000000    25.39000000
   O     44.99000000   -16.76000000    25.12000000
   C     44.85000000   -19.23000000    26.60000000
   C     44.37000000   -20.35000000    25.68000000
   O     45.01000000   -19.71000000    27.91000000
   H     41.83000000   -18.51000000    26.35000000
   H     44.25000000   -17.35000000    27.42000000
   H     45.85000000   -18.98000000    26.24000000
   H     44.25000000   -19.50000000    28.45000000
   H     43.29000000   -20.46000000    25.78000000
   H     44.60000000   -20.12000000    24.64000000
   H     44.89000000   -21.29000000    25.82000000
   N     42.76000000   -17.16000000    24.76000000
   C     42.54000000   -16.71000000    23.40000000
   C     43.10000000   -17.69000000    22.38000000
   O     44.05000000   -18.46000000    22.52000000
   C     43.10000000   -15.32000000    23.11000000
   C     42.80000000   -14.34000000    24.23000000
   O     42.56000000   -14.81000000    21.91000000
   H     41.88000000   -17.46000000    25.16000000
   H     41.47000000   -16.57000000    23.22000000
   H     44.19000000   -15.32000000    23.07000000
   H     42.94000000   -13.93000000    21.81000000
   H     43.38000000   -14.63000000    25.11000000
   H     43.15000000   -13.34000000    23.94000000
   H     41.73000000   -14.29000000    24.41000000
   N     42.56000000   -17.75000000    21.16000000
   C     43.14000000   -18.41000000    20.01000000
   C     42.20000000   -19.39000000    19.31000000
   O     42.65000000   -20.06000000    18.39000000
   C     43.63000000   -17.36000000    19.03000000
   C     45.10000000   -17.12000000    19.36000000
   C     45.76000000   -16.06000000    18.48000000
   C     47.25000000   -15.90000000    18.76000000
   N     47.96000000   -15.10000000    17.75000000
   H     41.83000000   -17.07000000    21.01000000
   H     43.96000000   -19.08000000    20.28000000
   H     42.98000000   -16.49000000    19.14000000
   H     43.60000000   -17.69000000    18.00000000
   H     45.60000000   -18.09000000    19.29000000
   H     45.21000000   -16.79000000    20.40000000
   H     45.28000000   -15.10000000    18.70000000
   H     45.49000000   -16.40000000    17.48000000
   H     47.63000000   -16.92000000    18.75000000
   H     47.42000000   -15.52000000    19.77000000
   H     48.05000000   -15.62000000    16.89000000
   H     47.46000000   -14.24000000    17.55000000
   H     48.89000000   -14.88000000    18.07000000
   N     40.88000000   -19.49000000    19.45000000
   C     39.83000000   -18.63000000    19.97000000
   C     40.05000000   -17.15000000    19.70000000
   O     40.04000000   -16.27000000    20.55000000
   C     39.47000000   -18.88000000    21.43000000
   C     39.25000000   -20.35000000    21.75000000
   C     38.38000000   -20.51000000    22.99000000
   O     38.58000000   -19.85000000    24.03000000
   O     37.42000000   -21.30000000    23.02000000
   H     40.53000000   -20.27000000    18.93000000
   H     38.93000000   -18.92000000    19.41000000
   H     38.44000000   -18.51000000    21.52000000
   H     40.10000000   -18.39000000    22.17000000
   H     40.21000000   -20.85000000    21.88000000
   H     38.71000000   -20.80000000    20.92000000
   N     40.15000000   -16.72000000    18.44000000
   C     39.95000000   -15.34000000    18.03000000
   H     39.07900000   -14.93200000    18.54200000
   H     40.83100000   -14.75200000    18.28800000
   H     39.78900000   -15.30000000    16.95300000
   H     40.20000000   -17.41000000    17.71000000
  Ca     36.90000000   -21.10600000    25.59000000
   O     35.00000000   -19.77600000    24.16000000
   H     34.47000000   -19.97600000    23.39000000
   H     34.55000000   -19.03600000    24.57000000
   O     38.58000000   -23.08600000    25.23000000
   H     39.04000000   -23.31600000    26.04000000
   H     39.26000000   -23.09600000    24.56000000
   O     37.40000000   -18.69600000    26.79000000
   H     37.99000000   -18.17600000    26.24000000
   H     36.94000000   -18.05600000    27.33000000
   O     34.91000000   -22.66600000    24.57000000
   H     34.03000000   -22.85600000    24.89000000
   H     34.91000000   -22.96600000    23.67000000

Ca 1.00



