%chk=loop3.apoCaM-CA-Ng.Init31.run23.water6.chk
%nprocshared=20
%mem=10GB
%nosave
#b3lyp/svp scf=(tight,noincore,xqc) Test 
#IOP(5/87=12) Density=Current Pop=(MK,readradii) iop(6/33=2) iop(6/42=6)

loop3.apoCaM-CA-Ng.Init31.run23.water6 

   0  1 
   C    104.86000000    44.96000000    11.81000000
   C    106.17000000    44.61000000    11.12000000
   O    106.30000000    43.65000000    10.36000000
   H    104.07000000    44.30600000    11.44100000
   H    104.96800000    44.82600000    12.88600000
   H    104.60200000    45.99700000    11.59600000
   N    107.23000000    45.35000000    11.42000000
   C    108.44000000    45.29000000    10.62000000
   C    109.35000000    44.11000000    10.91000000
   O    109.38000000    43.53000000    12.00000000
   C    109.19000000    46.61000000    10.75000000
   C    109.44000000    47.00000000    12.20000000
   O    108.49000000    47.33000000    12.93000000
   O    110.61000000    46.90000000    12.64000000
   H    107.19000000    46.11000000    12.09000000
   H    108.13000000    45.34000000     9.57000000
   H    108.63000000    47.45000000    10.34000000
   H    110.12000000    46.49000000    10.18000000
   N    110.21000000    43.82000000     9.93000000
   C    111.48000000    43.15000000    10.08000000
   C    111.34000000    41.69000000    10.51000000
   O    112.24000000    41.15000000    11.14000000
   C    112.27000000    43.16000000     8.78000000
   C    112.68000000    44.55000000     8.32000000
   C    113.96000000    44.97000000     9.03000000
   C    114.63000000    45.96000000     8.09000000
   N    113.89000000    47.23000000     8.04000000
   H    110.15000000    44.39000000     9.09000000
   H    112.08000000    43.64000000    10.85000000
   H    111.56000000    42.73000000     8.07000000
   H    113.16000000    42.55000000     8.92000000
   H    111.90000000    45.27000000     8.59000000
   H    112.77000000    44.56000000     7.23000000
   H    114.73000000    44.20000000     9.02000000
   H    113.74000000    45.44000000     9.99000000
   H    114.72000000    45.59000000     7.07000000
   H    115.57000000    46.24000000     8.59000000
   H    114.52000000    47.90000000     7.62000000
   H    113.12000000    47.23000000     7.39000000
   H    113.47000000    47.52000000     8.92000000
   N    110.27000000    40.99000000    10.14000000
   C    109.98000000    39.57000000    10.27000000
   C    109.25000000    38.94000000     9.09000000
   O    108.30000000    38.18000000     9.26000000
   C    109.13000000    39.53000000    11.54000000
   C    107.76000000    40.18000000    11.38000000
   O    107.27000000    40.55000000    10.30000000
   O    106.99000000    40.14000000    12.37000000
   H    109.60000000    41.48000000     9.56000000
   H    110.87000000    39.00000000    10.56000000
   H    109.60000000    39.93000000    12.44000000
   H    108.97000000    38.48000000    11.76000000
   N    109.60000000    39.39000000     7.89000000
   C    109.02000000    39.09000000     6.59000000
   C    107.72000000    39.81000000     6.25000000
   O    106.96000000    40.14000000     7.16000000
   H    110.34000000    40.08000000     7.82000000
   H    108.74000000    38.05000000     6.44000000
   H    109.82000000    39.19000000     5.86000000
   N    107.46000000    40.23000000     5.01000000
   C    108.01000000    39.81000000     3.74000000
   C    106.94000000    39.45000000     2.72000000
   O    106.21000000    40.32000000     2.26000000
   C    108.99000000    40.86000000     3.23000000
   C    109.82000000    40.38000000     2.05000000
   N    109.52000000    40.89000000     0.85000000
   O    110.55000000    39.39000000     2.10000000
   H    106.78000000    40.97000000     5.00000000
   H    108.60000000    38.90000000     3.84000000
   H    109.63000000    41.21000000     4.04000000
   H    108.39000000    41.72000000     2.93000000
   H    108.86000000    41.63000000     0.70000000
   H    109.98000000    40.55000000     0.02000000
   N    106.89000000    38.23000000     2.18000000
   C    107.56000000    37.02000000     2.62000000
   C    106.92000000    36.44000000     3.87000000
   O    106.74000000    37.13000000     4.87000000
   H    106.32000000    38.17000000     1.34000000
   H    108.61000000    37.24000000     2.83000000
   H    107.57000000    36.26000000     1.84000000
   N    106.66000000    35.13000000     3.77000000
   C    106.07000000    34.34000000     4.83000000
   C    106.67000000    32.95000000     4.95000000
   O    107.07000000    32.37000000     3.95000000
   C    104.56000000    34.19000000     4.66000000
   C    103.77000000    35.48000000     4.69000000
   C    103.12000000    35.89000000     5.86000000
   C    103.67000000    36.28000000     3.55000000
   C    102.28000000    37.01000000     5.89000000
   C    102.96000000    37.49000000     3.64000000
   C    102.24000000    37.88000000     4.78000000
   O    101.61000000    39.08000000     4.95000000
   H    106.88000000    34.62000000     2.93000000
   H    106.21000000    34.87000000     5.78000000
   H    104.19000000    33.57000000     5.48000000
   H    104.22000000    33.70000000     3.75000000
   H    103.20000000    35.26000000     6.73000000
   H    104.13000000    35.91000000     2.65000000
   H    101.78000000    37.26000000     6.81000000
   H    102.85000000    38.08000000     2.74000000
   H    101.69000000    39.61000000     4.15000000
   N    106.79000000    32.45000000     6.19000000
   C    107.31000000    31.16000000     6.58000000
   C    106.24000000    30.08000000     6.71000000
   O    106.52000000    28.89000000     6.84000000
   C    108.29000000    31.23000000     7.74000000
   C    107.53000000    31.29000000     9.06000000
   C    109.35000000    30.14000000     7.59000000
   C    108.36000000    31.95000000    10.16000000
   H    106.47000000    33.06000000     6.92000000
   H    107.93000000    30.77000000     5.77000000
   H    108.84000000    32.17000000     7.62000000
   H    107.02000000    30.38000000     9.39000000
   H    106.68000000    31.96000000     8.97000000
   H    109.88000000    30.21000000     6.64000000
   H    110.15000000    30.29000000     8.32000000
   H    108.97000000    29.13000000     7.74000000
   H    108.66000000    32.97000000     9.92000000
   H    107.80000000    31.98000000    11.10000000
   H    109.20000000    31.32000000    10.43000000
   N    104.99000000    30.54000000     6.78000000
   C    103.81000000    29.71000000     6.86000000
   C    103.56000000    29.18000000     8.26000000
   O    102.65000000    28.35000000     8.37000000
   C    102.68000000    30.52000000     6.23000000
   O    102.61000000    31.80000000     6.83000000
   H    104.86000000    31.52000000     6.56000000
   H    104.03000000    28.83000000     6.26000000
   H    101.77000000    29.91000000     6.27000000
   H    102.86000000    30.69000000     5.17000000
   H    102.01000000    32.36000000     6.32000000
   N    104.23000000    29.59000000     9.34000000
   C    103.74000000    29.29000000    10.68000000
   C    104.14000000    30.41000000    11.62000000
   O    105.23000000    30.93000000    11.44000000
   C    104.44000000    28.01000000    11.13000000
   H    104.83000000    30.39000000     9.26000000
   H    102.66000000    29.18000000    10.73000000
   H    105.52000000    28.18000000    11.09000000
   H    104.17000000    27.68000000    12.13000000
   H    104.16000000    27.13000000    10.55000000
   N    103.21000000    30.79000000    12.51000000
   C    103.22000000    31.90000000    13.44000000
   C    103.15000000    33.29000000    12.83000000
   O    103.39000000    34.27000000    13.54000000
   C    104.30000000    31.76000000    14.51000000
   H    102.48000000    30.10000000    12.48000000
   H    102.25000000    31.71000000    13.89000000
   H    104.16000000    30.84000000    15.08000000
   H    105.28000000    31.53000000    14.10000000
   H    104.42000000    32.55000000    15.25000000
   N    102.96000000    33.44000000    11.52000000
   C    102.96000000    34.77000000    10.93000000
   C    101.65000000    35.49000000    11.19000000
   O    101.64000000    36.67000000    11.54000000
   C    103.23000000    34.52000000     9.45000000
   C    104.51000000    33.77000000     9.08000000
   C    105.77000000    34.60000000     9.23000000
   O    106.04000000    35.01000000    10.38000000
   O    106.56000000    34.77000000     8.27000000
   H    102.57000000    32.66000000    11.01000000
   H    103.75000000    35.37000000    11.39000000
   H    103.33000000    35.50000000     8.98000000
   H    102.32000000    34.16000000     8.98000000
   H    104.43000000    33.46000000     8.04000000
   H    104.52000000    32.79000000     9.56000000
   N    100.54000000    34.77000000    11.03000000
   C     99.18000000    35.27000000    11.09000000
   H     98.52700000    34.49700000    11.49500000
   H     99.14400000    36.14900000    11.73300000
   H     98.84600000    35.53800000    10.08800000
   H    100.68000000    33.87000000    10.61000000
  Ca    105.46500000    39.15000000     9.05000000
   O    103.02500000    38.81000000    10.12000000
   H    102.55500000    38.17000000    10.64000000
   H    102.74500000    39.66000000    10.47000000
   O    105.44500000    37.56000000    11.12000000
   H    105.50500000    36.60000000    11.17000000
   H    105.10500000    37.83000000    11.97000000
   O    104.69500000    41.81000000     8.76000000
   H    105.14500000    42.32000000     9.43000000
   H    103.99500000    42.39000000     8.45000000
   O    105.77500000    37.09000000     7.35000000
   H    106.03500000    37.14000000     6.43000000
   H    106.33500000    36.41000000     7.72000000
   O    104.06500000    39.47000000     6.89000000
   H    104.08500000    38.86000000     6.15000000
   H    103.99500000    40.34000000     6.48000000
   O    104.63500000    40.73000000    11.47000000
   H    105.48500000    40.60000000    11.88000000
   H    104.10500000    41.14000000    12.16000000

Ca 1.00



