%chk=loop3.holoCaM-CaMKII.run36.water2.chk
%nprocshared=20
%mem=10GB
%nosave
#b3lyp/svp scf=(tight,noincore,xqc) Test 
#IOP(5/87=12) Density=Current Pop=(MK,readradii) iop(6/33=2) iop(6/42=6)

loop3.holoCaM-CaMKII.run36.water2 

   0  1 
   C     -3.42600000    51.88000000    18.01400000
   C     -2.65600000    51.63000000    19.30400000
   O     -1.78600000    50.77000000    19.38400000
   H     -4.32300000    52.46000000    18.23300000
   H     -2.79800000    52.43400000    17.31700000
   H     -3.71000000    50.92600000    17.56900000
   N     -2.85600000    52.50000000    20.29400000
   C     -2.37600000    52.32000000    21.65400000
   C     -3.51600000    51.52000000    22.27400000
   O     -4.48600000    52.02000000    22.84400000
   C     -2.17600000    53.75000000    22.15400000
   C     -1.81600000    53.80000000    23.63400000
   O     -1.26600000    52.79000000    24.12400000
   O     -1.94600000    54.88000000    24.24400000
   H     -3.58600000    53.19000000    20.14400000
   H     -1.45600000    51.74000000    21.65400000
   H     -3.11600000    54.29000000    22.07400000
   H     -1.40600000    54.20000000    21.53400000
   N     -3.22600000    50.22000000    22.24400000
   C     -4.26600000    49.28000000    22.62400000
   C     -4.52600000    49.21000000    24.12400000
   O     -5.61600000    48.79000000    24.51400000
   C     -3.91600000    47.84000000    22.25400000
   C     -4.05600000    47.59000000    20.75400000
   C     -5.46600000    47.49000000    20.17400000
   C     -5.58600000    47.34000000    18.66400000
   N     -6.96600000    47.16000000    18.20400000
   H     -2.39600000    49.97000000    21.72400000
   H     -5.21600000    49.58000000    22.17400000
   H     -4.62600000    47.26000000    22.84400000
   H     -2.90600000    47.57000000    22.55400000
   H     -3.57600000    46.61000000    20.70400000
   H     -3.41600000    48.18000000    20.09400000
   H     -5.96600000    48.41000000    20.47400000
   H     -5.96600000    46.70000000    20.75400000
   H     -4.97600000    46.45000000    18.48400000
   H     -5.06600000    48.18000000    18.20400000
   H     -7.62600000    47.89000000    18.42400000
   H     -6.97600000    47.06000000    17.19400000
   H     -7.37600000    46.28000000    18.48400000
   N     -3.56600000    49.67000000    24.93400000
   C     -3.77600000    49.90000000    26.34400000
   C     -3.87600000    51.34000000    26.82400000
   O     -3.91600000    51.53000000    28.03400000
   C     -2.76600000    49.12000000    27.18400000
   C     -1.33600000    49.22000000    26.70400000
   O     -0.45600000    48.45000000    27.14400000
   O     -0.95600000    50.08000000    25.87400000
   H     -2.74600000    50.12000000    24.54400000
   H     -4.75600000    49.57000000    26.67400000
   H     -3.13600000    48.10000000    27.21400000
   H     -2.69600000    49.51000000    28.20400000
   N     -3.82600000    52.34000000    25.93400000
   C     -4.02600000    53.75000000    26.19400000
   C     -2.97600000    54.50000000    27.01400000
   O     -3.34600000    55.52000000    27.59400000
   H     -3.86600000    52.06000000    24.96400000
   H     -5.01600000    53.83000000    26.63400000
   H     -4.07600000    54.21000000    25.21400000
   N     -1.73600000    54.04000000    26.87400000
   C     -0.61600000    54.51000000    27.67400000
   C      0.24400000    55.62000000    27.10400000
   O      1.17400000    56.06000000    27.77400000
   C      0.19400000    53.34000000    28.22400000
   C      1.30400000    53.01000000    27.22400000
   N      2.46400000    52.71000000    27.82400000
   O      1.14400000    52.93000000    26.01400000
   H     -1.52600000    53.39000000    26.13400000
   H     -1.08600000    54.84000000    28.60400000
   H     -0.40600000    52.44000000    28.33400000
   H      0.56400000    53.68000000    29.18400000
   H      2.59400000    52.71000000    28.82400000
   H      3.23400000    52.40000000    27.25400000
   N     -0.08600000    56.27000000    25.98400000
   C      0.66400000    57.36000000    25.39400000
   C      1.37400000    56.84000000    24.16400000
   O      1.81400000    57.72000000    23.43400000
   H     -0.82600000    55.85000000    25.43400000
   H      1.48400000    57.72000000    26.01400000
   H      0.06400000    58.20000000    25.04400000
   N      1.58400000    55.55000000    23.84400000
   C      2.53400000    55.05000000    22.87400000
   C      1.98400000    53.94000000    21.99400000
   O      1.24400000    53.09000000    22.47400000
   C      3.75400000    54.73000000    23.74400000
   C      4.37400000    55.83000000    24.58400000
   C      5.32400000    56.66000000    23.98400000
   C      3.81400000    56.09000000    25.83400000
   C      5.79400000    57.81000000    24.63400000
   C      4.19400000    57.26000000    26.50400000
   C      5.12400000    58.10000000    25.84400000
   O      5.39400000    59.28000000    26.47400000
   H      1.17400000    54.81000000    24.38400000
   H      2.90400000    55.85000000    22.24400000
   H      4.48400000    54.28000000    23.06400000
   H      3.45400000    53.87000000    24.34400000
   H      5.63400000    56.34000000    23.00400000
   H      3.08400000    55.46000000    26.31400000
   H      6.65400000    58.37000000    24.29400000
   H      3.75400000    57.51000000    27.45400000
   H      5.94400000    59.87000000    25.96400000
   N      2.51400000    53.79000000    20.77400000
   C      2.20400000    52.69000000    19.87400000
   C      3.48400000    51.88000000    19.79400000
   O      4.58400000    52.44000000    19.76400000
   C      1.76400000    53.26000000    18.53400000
   C      0.41400000    53.96000000    18.67400000
   C      1.72400000    52.16000000    17.47400000
   C      0.12400000    54.91000000    17.50400000
   H      2.84400000    54.66000000    20.38400000
   H      1.45400000    52.04000000    20.33400000
   H      2.49400000    53.94000000    18.10400000
   H      0.23400000    54.54000000    19.57400000
   H     -0.39600000    53.24000000    18.76400000
   H      1.27400000    52.53000000    16.55400000
   H      2.70400000    51.80000000    17.18400000
   H      1.15400000    51.32000000    17.86400000
   H      1.09400000    55.29000000    17.18400000
   H     -0.43600000    54.40000000    16.72400000
   H     -0.57600000    55.66000000    17.84400000
   N      3.30400000    50.56000000    19.81400000
   C      4.38400000    49.63000000    19.54400000
   C      4.03400000    48.68000000    18.40400000
   O      2.87400000    48.47000000    18.08400000
   C      4.88400000    48.96000000    20.81400000
   O      3.88400000    48.47000000    21.68400000
   H      2.36400000    50.22000000    19.93400000
   H      5.23400000    50.18000000    19.13400000
   H      5.50400000    49.61000000    21.43400000
   H      5.42400000    48.09000000    20.43400000
   H      3.11400000    49.04000000    21.64400000
   N      5.08400000    48.19000000    17.73400000
   C      4.89400000    47.31000000    16.59400000
   C      3.84400000    46.23000000    16.77400000
   O      3.08400000    46.12000000    15.81400000
   C      6.22400000    46.64000000    16.23400000
   H      6.01400000    48.46000000    18.01400000
   H      4.58400000    47.92000000    15.75400000
   H      6.77400000    46.45000000    17.15400000
   H      6.06400000    45.69000000    15.73400000
   H      6.87400000    47.26000000    15.62400000
   N      3.69400000    45.48000000    17.87400000
   C      2.69400000    44.46000000    18.08400000
   C      1.28400000    44.90000000    18.43400000
   O      0.34400000    44.21000000    18.06400000
   C      3.07400000    43.51000000    19.22400000
   H      4.47400000    45.42000000    18.50400000
   H      2.50400000    43.87000000    17.18400000
   H      2.29400000    42.76000000    19.36400000
   H      4.01400000    42.99000000    19.01400000
   H      3.23400000    43.98000000    20.19400000
   N      1.08400000    46.14000000    18.89400000
   C     -0.22600000    46.78000000    18.91400000
   C     -0.67600000    47.33000000    17.57400000
   O     -1.89600000    47.31000000    17.40400000
   C     -0.16600000    47.95000000    19.89400000
   C      0.29400000    47.59000000    21.30400000
   C      0.50400000    48.82000000    22.17400000
   O     -0.38600000    49.08000000    23.01400000
   O      1.41400000    49.66000000    22.03400000
   H      1.86400000    46.73000000    19.12400000
   H     -0.96600000    46.15000000    19.40400000
   H     -1.17600000    48.36000000    20.01400000
   H      0.54400000    48.70000000    19.55400000
   H      1.24400000    47.08000000    21.17400000
   H     -0.38600000    46.89000000    21.78400000
   N      0.26400000    47.86000000    16.78400000
   C     -0.00600000    48.24000000    15.41400000
   H     -0.78900000    48.99800000    15.39500000
   H      0.90000000    48.64400000    14.96300000
   H     -0.33400000    47.36600000    14.85200000
   H      1.23400000    47.89000000    17.08400000
  Ca      0.62000000    51.02000000    24.20000000
   O      3.25000000    51.51000000    24.23000000
   H      3.80000000    51.54000000    25.02000000
   H      3.84000000    51.76000000    23.52000000
   O      1.92000000    49.60000000    26.00000000
   H      1.49000000    48.96000000    26.58000000
   H      2.75000000    49.18000000    25.77000000

Ca 1.00



