%chk=loop3.holoCaM.run47.water3.chk
%nprocshared=20
%mem=10GB
%nosave
#b3lyp/svp scf=(tight,noincore,xqc) Test 
#IOP(5/87=12) Density=Current Pop=(MK,readradii) iop(6/33=2) iop(6/42=6)

loop3.holoCaM.run47.water3 

   0  1 
   C     78.09000000    44.97000000    22.57000000
   C     79.17000000    45.14000000    23.63000000
   O     79.61000000    44.19000000    24.27000000
   H     77.24300000    45.61300000    22.80900000
   H     78.49100000    45.24500000    21.59500000
   H     77.76200000    43.93100000    22.54900000
   N     79.59000000    46.37000000    23.95000000
   C     80.40000000    46.63000000    25.13000000
   C     79.46000000    46.59000000    26.33000000
   O     78.56000000    47.41000000    26.45000000
   C     81.01000000    48.03000000    25.02000000
   C     81.79000000    48.50000000    26.24000000
   O     82.33000000    49.62000000    26.13000000
   O     82.06000000    47.78000000    27.23000000
   H     79.43000000    47.10000000    23.28000000
   H     81.21000000    45.92000000    25.25000000
   H     80.26000000    48.79000000    24.85000000
   H     81.68000000    48.06000000    24.16000000
   N     79.67000000    45.73000000    27.33000000
   C     78.74000000    45.40000000    28.39000000
   C     78.89000000    46.12000000    29.72000000
   O     78.27000000    45.84000000    30.74000000
   C     78.40000000    43.92000000    28.47000000
   C     77.88000000    43.17000000    27.25000000
   C     76.61000000    43.83000000    26.73000000
   C     75.94000000    42.88000000    25.74000000
   N     74.72000000    43.38000000    25.10000000
   H     80.52000000    45.19000000    27.39000000
   H     77.77000000    45.77000000    28.05000000
   H     77.71000000    43.70000000    29.28000000
   H     79.35000000    43.55000000    28.85000000
   H     77.66000000    42.11000000    27.40000000
   H     78.58000000    43.26000000    26.41000000
   H     76.93000000    44.69000000    26.14000000
   H     75.96000000    44.13000000    27.56000000
   H     75.64000000    41.95000000    26.23000000
   H     76.62000000    42.60000000    24.94000000
   H     74.46000000    42.87000000    24.27000000
   H     73.95000000    43.43000000    25.76000000
   H     74.84000000    44.35000000    24.85000000
   N     79.92000000    46.96000000    29.83000000
   C     80.15000000    47.73000000    31.03000000
   C     80.48000000    49.21000000    30.87000000
   O     80.54000000    50.03000000    31.77000000
   C     81.11000000    47.04000000    31.99000000
   C     82.40000000    46.65000000    31.27000000
   O     82.67000000    47.08000000    30.13000000
   O     83.18000000    45.81000000    31.77000000
   H     80.57000000    47.04000000    29.05000000
   H     79.23000000    47.71000000    31.62000000
   H     80.55000000    46.17000000    32.32000000
   H     81.29000000    47.76000000    32.78000000
   N     80.58000000    49.62000000    29.60000000
   C     80.70000000    50.96000000    29.05000000
   C     82.08000000    51.56000000    29.25000000
   O     82.14000000    52.71000000    29.68000000
   H     80.71000000    48.91000000    28.90000000
   H     79.89000000    51.57000000    29.45000000
   H     80.62000000    50.91000000    27.97000000
   N     83.15000000    50.83000000    28.92000000
   C     84.50000000    51.36000000    28.99000000
   C     85.15000000    51.73000000    27.66000000
   O     86.31000000    52.09000000    27.45000000
   C     85.38000000    50.45000000    29.84000000
   C     85.75000000    49.07000000    29.31000000
   N     86.99000000    48.64000000    29.59000000
   O     85.01000000    48.50000000    28.52000000
   H     83.04000000    49.92000000    28.50000000
   H     84.49000000    52.31000000    29.52000000
   H     84.94000000    50.39000000    30.83000000
   H     86.24000000    51.06000000    30.11000000
   H     87.62000000    49.25000000    30.10000000
   H     87.22000000    47.80000000    29.09000000
   N     84.32000000    51.66000000    26.62000000
   C     84.72000000    51.87000000    25.24000000
   C     85.59000000    50.74000000    24.72000000
   O     86.30000000    50.99000000    23.75000000
   H     83.41000000    51.23000000    26.70000000
   H     85.21000000    52.82000000    25.01000000
   H     83.76000000    51.88000000    24.72000000
   N     85.54000000    49.52000000    25.27000000
   C     86.32000000    48.39000000    24.81000000
   C     85.50000000    47.11000000    24.73000000
   O     84.59000000    46.91000000    25.54000000
   C     87.45000000    48.17000000    25.81000000
   C     88.72000000    48.96000000    25.61000000
   C     89.01000000    49.93000000    26.59000000
   C     89.59000000    48.73000000    24.54000000
   C     90.22000000    50.63000000    26.52000000
   C     90.79000000    49.45000000    24.43000000
   C     91.10000000    50.37000000    25.45000000
   O     92.24000000    51.12000000    25.36000000
   H     84.84000000    49.37000000    25.98000000
   H     86.80000000    48.68000000    23.87000000
   H     87.78000000    47.13000000    25.75000000
   H     87.05000000    48.33000000    26.81000000
   H     88.31000000    50.14000000    27.38000000
   H     89.35000000    47.95000000    23.84000000
   H     90.46000000    51.31000000    27.33000000
   H     91.32000000    49.28000000    23.50000000
   H     92.73000000    50.95000000    24.56000000
   N     85.82000000    46.28000000    23.74000000
   C     85.15000000    45.02000000    23.48000000
   C     86.28000000    44.01000000    23.59000000
   O     87.26000000    43.90000000    22.86000000
   C     84.45000000    45.03000000    22.13000000
   C     83.17000000    45.87000000    22.23000000
   C     84.27000000    43.65000000    21.52000000
   C     82.40000000    45.93000000    20.92000000
   H     86.52000000    46.65000000    23.11000000
   H     84.41000000    44.93000000    24.28000000
   H     85.02000000    45.60000000    21.39000000
   H     83.47000000    46.88000000    22.49000000
   H     82.56000000    45.54000000    23.07000000
   H     85.25000000    43.17000000    21.46000000
   H     83.60000000    42.97000000    22.04000000
   H     83.92000000    43.68000000    20.49000000
   H     81.62000000    46.69000000    20.90000000
   H     83.05000000    46.08000000    20.06000000
   H     81.86000000    45.00000000    20.80000000
   N     86.16000000    43.21000000    24.66000000
   C     86.84000000    41.97000000    24.96000000
   C     86.43000000    40.86000000    24.00000000
   O     85.41000000    40.94000000    23.32000000
   C     86.69000000    41.60000000    26.43000000
   O     85.35000000    41.23000000    26.64000000
   H     85.45000000    43.42000000    25.35000000
   H     87.91000000    42.10000000    24.79000000
   H     87.00000000    42.37000000    27.14000000
   H     87.25000000    40.68000000    26.64000000
   H     84.76000000    41.98000000    26.58000000
   N     87.14000000    39.74000000    24.08000000
   C     86.74000000    38.56000000    23.34000000
   C     85.36000000    38.02000000    23.67000000
   O     84.57000000    37.48000000    22.89000000
   C     87.76000000    37.46000000    23.60000000
   H     87.96000000    39.62000000    24.66000000
   H     86.77000000    38.75000000    22.27000000
   H     87.49000000    36.81000000    24.43000000
   H     87.76000000    36.82000000    22.71000000
   H     88.74000000    37.94000000    23.64000000
   N     85.12000000    38.04000000    24.99000000
   C     83.89000000    37.52000000    25.53000000
   C     82.70000000    38.41000000    25.21000000
   O     81.53000000    38.05000000    25.32000000
   C     84.10000000    37.43000000    27.04000000
   H     85.91000000    38.24000000    25.59000000
   H     83.56000000    36.54000000    25.17000000
   H     84.94000000    36.75000000    27.19000000
   H     84.32000000    38.42000000    27.45000000
   H     83.15000000    37.05000000    27.42000000
   N     82.97000000    39.64000000    24.76000000
   C     81.97000000    40.52000000    24.18000000
   C     81.87000000    40.45000000    22.67000000
   O     80.74000000    40.43000000    22.18000000
   C     82.34000000    41.94000000    24.61000000
   C     82.14000000    42.28000000    26.08000000
   C     82.85000000    43.57000000    26.48000000
   O     82.25000000    44.57000000    26.93000000
   O     84.10000000    43.56000000    26.47000000
   H     83.95000000    39.91000000    24.72000000
   H     81.00000000    40.36000000    24.64000000
   H     81.65000000    42.56000000    24.03000000
   H     83.38000000    42.09000000    24.33000000
   H     82.55000000    41.44000000    26.64000000
   H     81.07000000    42.34000000    26.28000000
   N     82.97000000    40.22000000    21.95000000
   C     82.99000000    40.00000000    20.51000000
   H     83.72900000    40.65800000    20.05300000
   H     83.25100000    38.96200000    20.30400000
   H     82.00600000    40.21700000    20.09500000
   H     83.81000000    40.12000000    22.49000000
  Ca     83.96000000    46.11000000    28.16000000
   O     85.44000000    45.76000000    30.42000000
   H     86.21000000    45.42000000    30.87000000
   H     84.72000000    45.60000000    31.02000000
   O     83.44000000    43.59000000    29.54000000
   H     82.78000000    43.94000000    30.14000000
   H     83.26000000    42.65000000    29.51000000
   O     86.56000000    45.52000000    27.76000000
   H     87.34000000    45.57000000    27.21000000
   H     86.76000000    44.85000000    28.41000000

Ca 1.00



