%chk=loop3.apoCaM-CA-Ng.Init295.run99.water5.chk
%nprocshared=20
%mem=10GB
%nosave
#b3lyp/svp scf=(tight,noincore,xqc) Test 
#IOP(5/87=12) Density=Current Pop=(MK,readradii) iop(6/33=2) iop(6/42=6)

loop3.apoCaM-CA-Ng.Init295.run99.water5 

   0  1 
   C     -2.20000000    92.73000000    74.64000000
   C     -3.03000000    91.67000000    75.35000000
   O     -2.83000000    90.49000000    75.07000000
   H     -1.23000000    92.31200000    74.37200000
   H     -2.71800000    93.05300000    73.73700000
   H     -2.05700000    93.58400000    75.30200000
   N     -3.67000000    92.03000000    76.47000000
   C     -4.32000000    91.07000000    77.35000000
   C     -5.38000000    91.87000000    78.10000000
   O     -5.10000000    93.02000000    78.42000000
   C     -3.26000000    90.47000000    78.26000000
   C     -3.95000000    89.37000000    79.07000000
   O     -3.98000000    88.16000000    78.75000000
   O     -4.52000000    89.65000000    80.14000000
   H     -3.55000000    93.01000000    76.68000000
   H     -4.77000000    90.25000000    76.79000000
   H     -2.88000000    91.14000000    79.03000000
   H     -2.51000000    89.91000000    77.70000000
   N     -6.50000000    91.24000000    78.46000000
   C     -7.61000000    91.89000000    79.13000000
   C     -7.27000000    92.12000000    80.59000000
   O     -7.81000000    93.08000000    81.13000000
   C     -8.95000000    91.18000000    78.98000000
   C     -9.01000000    90.00000000    79.95000000
   C    -10.22000000    89.10000000    79.70000000
   C    -10.42000000    87.96000000    80.69000000
   N     -9.28000000    87.04000000    80.84000000
   H     -6.63000000    90.32000000    78.06000000
   H     -7.74000000    92.87000000    78.68000000
   H     -9.06000000    90.69000000    78.01000000
   H     -9.81000000    91.85000000    78.98000000
   H     -9.11000000    90.35000000    80.98000000
   H     -8.14000000    89.34000000    79.98000000
   H    -10.11000000    88.72000000    78.69000000
   H    -11.14000000    89.68000000    79.64000000
   H    -11.41000000    87.53000000    80.54000000
   H    -10.61000000    88.50000000    81.62000000
   H     -8.47000000    87.62000000    81.02000000
   H     -9.29000000    86.42000000    81.64000000
   H     -9.04000000    86.51000000    80.02000000
   N     -6.50000000    91.30000000    81.31000000
   C     -6.43000000    91.26000000    82.75000000
   C     -4.98000000    91.46000000    83.18000000
   O     -4.67000000    91.63000000    84.36000000
   C     -6.99000000    89.96000000    83.33000000
   C     -6.37000000    88.73000000    82.69000000
   O     -6.90000000    88.04000000    81.80000000
   O     -5.28000000    88.27000000    83.10000000
   H     -6.12000000    90.47000000    80.86000000
   H     -6.93000000    92.13000000    83.18000000
   H     -8.06000000    89.95000000    83.12000000
   H     -6.76000000    89.96000000    84.40000000
   N     -4.00000000    91.43000000    82.28000000
   C     -2.67000000    91.96000000    82.51000000
   C     -1.74000000    91.14000000    83.39000000
   O     -0.55000000    91.43000000    83.50000000
   H     -4.20000000    91.04000000    81.37000000
   H     -2.74000000    92.95000000    82.97000000
   H     -2.35000000    92.09000000    81.48000000
   N     -2.21000000    90.03000000    83.96000000
   C     -1.51000000    89.16000000    84.89000000
   C     -0.45000000    88.22000000    84.34000000
   O     -0.69000000    87.57000000    83.33000000
   C     -2.63000000    88.38000000    85.57000000
   C     -2.26000000    87.81000000    86.93000000
   N     -3.20000000    87.55000000    87.84000000
   O     -1.08000000    87.62000000    87.20000000
   H     -3.13000000    89.72000000    83.68000000
   H     -0.95000000    89.85000000    85.52000000
   H     -3.05000000    87.61000000    84.93000000
   H     -3.46000000    89.06000000    85.82000000
   H     -4.18000000    87.61000000    87.61000000
   H     -2.77000000    87.32000000    88.72000000
   N      0.73000000    88.25000000    84.96000000
   C      1.82000000    87.30000000    84.86000000
   C      1.38000000    85.89000000    85.22000000
   O      2.02000000    84.94000000    84.78000000
   H      0.86000000    88.88000000    85.73000000
   H      2.67000000    87.54000000    85.51000000
   H      2.20000000    87.18000000    83.85000000
   N      0.29000000    85.64000000    85.96000000
   C     -0.06000000    84.38000000    86.58000000
   C     -0.99000000    83.51000000    85.73000000
   O     -1.98000000    83.93000000    85.15000000
   C     -0.74000000    84.57000000    87.93000000
   C     -1.33000000    83.37000000    88.62000000
   C     -2.71000000    83.17000000    88.68000000
   C     -0.53000000    82.39000000    89.21000000
   C     -3.28000000    82.02000000    89.24000000
   C     -1.05000000    81.26000000    89.86000000
   C     -2.44000000    81.02000000    89.77000000
   O     -2.88000000    79.84000000    90.30000000
   H     -0.32000000    86.42000000    86.15000000
   H      0.88000000    83.86000000    86.77000000
   H     -1.57000000    85.27000000    87.80000000
   H     -0.01000000    85.01000000    88.61000000
   H     -3.33000000    83.91000000    88.20000000
   H      0.54000000    82.48000000    89.04000000
   H     -4.34000000    81.78000000    89.25000000
   H     -0.45000000    80.50000000    90.33000000
   H     -2.21000000    79.21000000    90.58000000
   N     -0.60000000    82.23000000    85.68000000
   C     -1.18000000    81.20000000    84.85000000
   C     -2.58000000    80.66000000    85.15000000
   O     -3.45000000    81.41000000    85.58000000
   C     -1.02000000    81.59000000    83.38000000
   C     -1.67000000    80.58000000    82.45000000
   C      0.46000000    81.67000000    83.02000000
   C     -1.71000000    80.97000000    80.98000000
   H      0.31000000    81.98000000    86.04000000
   H     -0.55000000    80.32000000    84.95000000
   H     -1.46000000    82.57000000    83.21000000
   H     -2.69000000    80.35000000    82.79000000
   H     -1.09000000    79.66000000    82.45000000
   H      1.01000000    82.36000000    83.66000000
   H      0.99000000    80.73000000    83.17000000
   H      0.52000000    82.11000000    82.03000000
   H     -2.47000000    80.31000000    80.56000000
   H     -2.14000000    81.97000000    80.93000000
   H     -0.76000000    80.96000000    80.45000000
   N     -2.63000000    79.33000000    85.07000000
   C     -3.83000000    78.54000000    85.21000000
   C     -3.66000000    77.07000000    85.55000000
   O     -4.60000000    76.52000000    86.14000000
   C     -4.60000000    78.53000000    83.89000000
   O     -3.89000000    77.93000000    82.82000000
   H     -1.78000000    78.82000000    84.88000000
   H     -4.47000000    78.99000000    85.97000000
   H     -4.89000000    79.55000000    83.65000000
   H     -5.46000000    77.93000000    84.18000000
   H     -4.35000000    78.11000000    82.00000000
   N     -2.51000000    76.50000000    85.19000000
   C     -2.26000000    75.07000000    85.12000000
   C     -3.47000000    74.20000000    84.83000000
   O     -4.10000000    73.58000000    85.69000000
   C     -1.55000000    74.54000000    86.36000000
   H     -1.81000000    77.13000000    84.83000000
   H     -1.59000000    75.07000000    84.26000000
   H     -2.12000000    74.73000000    87.27000000
   H     -1.28000000    73.50000000    86.19000000
   H     -0.59000000    75.05000000    86.34000000
   N     -3.94000000    74.13000000    83.58000000
   C     -3.47000000    74.75000000    82.36000000
   C     -2.42000000    73.89000000    81.66000000
   O     -2.45000000    72.66000000    81.61000000
   C     -4.69000000    74.94000000    81.47000000
   H     -4.72000000    73.50000000    83.43000000
   H     -3.05000000    75.73000000    82.60000000
   H     -4.57000000    75.83000000    80.85000000
   H     -4.79000000    74.10000000    80.79000000
   H     -5.60000000    75.03000000    82.07000000
   N     -1.48000000    74.44000000    80.89000000
   C     -1.07000000    75.82000000    80.72000000
   C      0.40000000    75.92000000    81.08000000
   O      0.78000000    76.74000000    81.92000000
   C     -1.43000000    76.24000000    79.29000000
   C     -1.11000000    77.71000000    79.08000000
   C     -1.12000000    78.19000000    77.64000000
   O     -1.95000000    79.03000000    77.22000000
   O     -0.14000000    78.00000000    76.88000000
   H     -0.92000000    73.72000000    80.47000000
   H     -1.59000000    76.52000000    81.37000000
   H     -2.50000000    76.09000000    79.15000000
   H     -0.94000000    75.64000000    78.52000000
   H     -0.15000000    78.04000000    79.47000000
   H     -1.73000000    78.27000000    79.79000000
   N      1.16000000    74.95000000    80.56000000
   C      2.57000000    74.71000000    80.76000000
   H      3.10100000    75.66200000    80.77800000
   H      2.72000000    74.19300000    81.70800000
   H      2.95400000    74.09600000    79.94600000
   H      0.67000000    74.34000000    79.92000000
  Ca     -4.66400000    87.02000000    80.88000000
   O     -2.88400000    84.88000000    79.83000000
   H     -2.04400000    84.68000000    80.23000000
   H     -3.14400000    84.07000000    79.40000000
   O     -5.75400000    84.62000000    80.78000000
   H     -5.26400000    83.80000000    80.74000000
   H     -6.62400000    84.40000000    80.45000000
   O     -3.76400000    85.42000000    83.07000000
   H     -2.90400000    85.30000000    83.46000000
   H     -4.14400000    84.54000000    83.05000000
   O     -2.05400000    87.51000000    81.14000000
   H     -1.58400000    87.14000000    81.89000000
   H     -1.59400000    88.33000000    80.95000000
   O     -6.73400000    86.98000000    78.96000000
   H     -7.06400000    87.51000000    78.23000000
   H     -6.68400000    86.10000000    78.60000000

Ca 1.00



