%chk=loop2.apoCaM-CA-Ng.Init293.run52.water7.chk
%nprocshared=20
%mem=10GB
%nosave
#b3lyp/svp scf=(tight,noincore,xqc) Test 
#IOP(5/87=12) Density=Current Pop=(MK,readradii) iop(6/33=2) iop(6/42=6)

loop2.apoCaM-CA-Ng.Init293.run52.water7 

   -2  1 
   C     48.13000000    88.85000000   107.11000000
   C     48.44000000    88.71000000   108.59000000
   O     47.56000000    88.31000000   109.36000000
   H     47.33200000    89.58000000   106.97400000
   H     49.02200000    89.18500000   106.58100000
   H     47.81100000    87.88600000   106.71200000
   N     49.64000000    89.07000000   109.04000000
   C     50.10000000    88.98000000   110.41000000
   C     49.39000000    89.95000000   111.36000000
   O     49.23000000    89.63000000   112.54000000
   C     51.58000000    89.35000000   110.42000000
   C     52.27000000    89.45000000   111.78000000
   O     52.45000000    90.56000000   112.32000000
   O     52.59000000    88.38000000   112.34000000
   H     50.25000000    89.42000000   108.31000000
   H     49.89000000    87.98000000   110.78000000
   H     51.69000000    90.25000000   109.82000000
   H     52.17000000    88.62000000   109.87000000
   N     49.08000000    91.13000000   110.83000000
   C     48.33000000    92.17000000   111.52000000
   C     46.94000000    91.78000000   111.99000000
   O     46.39000000    92.15000000   113.03000000
   C     49.20000000    92.81000000   112.59000000
   H     49.33000000    91.30000000   109.87000000
   H     48.14000000    92.99000000   110.83000000
   H     50.19000000    92.86000000   112.14000000
   H     48.86000000    93.84000000   112.65000000
   H     49.09000000    92.30000000   113.55000000
   N     46.31000000    90.90000000   111.20000000
   C     45.03000000    90.34000000   111.61000000
   C     44.97000000    89.74000000   113.00000000
   O     43.96000000    89.87000000   113.69000000
   C     43.91000000    91.32000000   111.29000000
   C     44.06000000    91.91000000   109.90000000
   O     44.34000000    91.11000000   108.98000000
   O     43.80000000    93.13000000   109.76000000
   H     46.72000000    90.66000000   110.31000000
   H     44.89000000    89.58000000   110.84000000
   H     44.03000000    92.11000000   112.03000000
   H     43.03000000    90.67000000   111.29000000
   N     46.09000000    89.23000000   113.51000000
   C     46.18000000    88.47000000   114.74000000
   C     45.15000000    87.35000000   114.82000000
   O     44.66000000    86.74000000   113.87000000
   H     46.92000000    89.37000000   112.95000000
   H     45.95000000    89.22000000   115.51000000
   H     47.20000000    88.13000000   114.88000000
   N     44.80000000    87.10000000   116.09000000
   C     43.89000000    86.07000000   116.56000000
   C     44.31000000    84.67000000   116.12000000
   O     43.46000000    83.87000000   115.71000000
   C     42.46000000    86.53000000   116.33000000
   C     41.98000000    87.88000000   116.85000000
   N     42.43000000    88.96000000   116.20000000
   O     41.48000000    88.00000000   117.96000000
   H     45.17000000    87.67000000   116.83000000
   H     44.11000000    86.24000000   117.61000000
   H     41.83000000    85.74000000   116.73000000
   H     42.30000000    86.52000000   115.26000000
   H     42.96000000    88.87000000   115.34000000
   H     42.11000000    89.87000000   116.49000000
   N     45.59000000    84.34000000   116.01000000
   C     46.20000000    83.16000000   115.42000000
   C     46.28000000    83.04000000   113.91000000
   O     46.68000000    82.01000000   113.37000000
   H     46.24000000    84.98000000   116.44000000
   H     45.66000000    82.28000000   115.77000000
   H     47.18000000    83.05000000   115.90000000
   N     45.88000000    84.12000000   113.22000000
   C     46.24000000    84.27000000   111.83000000
   C     45.00000000    83.95000000   111.01000000
   O     43.89000000    84.25000000   111.42000000
   C     46.91000000    85.62000000   111.53000000
   C     48.12000000    85.99000000   112.38000000
   O     47.46000000    85.73000000   110.24000000
   H     45.44000000    84.88000000   113.71000000
   H     47.11000000    83.66000000   111.60000000
   H     46.15000000    86.39000000   111.64000000
   H     47.62000000    86.66000000   110.08000000
   H     48.41000000    86.97000000   111.99000000
   H     47.78000000    86.06000000   113.42000000
   H     48.97000000    85.32000000   112.30000000
   N     45.17000000    83.40000000   109.80000000
   C     44.05000000    83.14000000   108.92000000
   C     43.43000000    84.44000000   108.41000000
   O     44.09000000    85.47000000   108.28000000
   C     44.34000000    82.09000000   107.86000000
   C     45.45000000    82.43000000   106.87000000
   C     44.83000000    80.82000000   108.54000000
   C     44.98000000    83.29000000   105.70000000
   H     46.08000000    83.36000000   109.36000000
   H     43.35000000    82.62000000   109.58000000
   H     43.46000000    81.82000000   107.28000000
   H     45.75000000    81.49000000   106.41000000
   H     46.33000000    82.82000000   107.38000000
   H     44.83000000    80.06000000   107.75000000
   H     45.83000000    81.00000000   108.93000000
   H     44.15000000    80.48000000   109.31000000
   H     45.70000000    83.44000000   104.90000000
   H     44.12000000    82.75000000   105.31000000
   H     44.78000000    84.30000000   106.07000000
   N     42.12000000    84.41000000   108.19000000
   C     41.28000000    85.59000000   108.10000000
   C     40.28000000    85.71000000   109.24000000
   O     39.10000000    86.02000000   109.03000000
   C     40.66000000    85.75000000   106.71000000
   C     40.15000000    87.18000000   106.57000000
   O     40.91000000    88.15000000   106.74000000
   O     38.93000000    87.28000000   106.33000000
   H     41.71000000    83.54000000   107.88000000
   H     41.97000000    86.43000000   108.17000000
   H     39.81000000    85.09000000   106.61000000
   H     41.39000000    85.49000000   105.94000000
   N     40.70000000    85.36000000   110.45000000
   C     39.95000000    85.38000000   111.70000000
   C     38.79000000    84.41000000   111.89000000
   O     37.68000000    84.81000000   112.22000000
   C     40.82000000    85.37000000   112.95000000
   C     40.04000000    85.66000000   114.20000000
   C     39.81000000    84.61000000   115.11000000
   C     39.42000000    86.91000000   114.38000000
   C     39.22000000    84.95000000   116.33000000
   C     38.76000000    87.26000000   115.56000000
   C     38.72000000    86.25000000   116.52000000
   H     41.69000000    85.20000000   110.55000000
   H     39.50000000    86.37000000   111.67000000
   H     41.54000000    86.17000000   112.81000000
   H     41.33000000    84.41000000   113.09000000
   H     40.14000000    83.62000000   114.86000000
   H     39.65000000    87.62000000   113.61000000
   H     39.10000000    84.16000000   117.05000000
   H     38.37000000    88.24000000   115.83000000
   H     38.29000000    86.46000000   117.49000000
   N     38.97000000    83.12000000   111.59000000
   C     40.21000000    82.44000000   111.28000000
   C     40.35000000    81.94000000   109.85000000
   O     41.26000000    81.17000000   109.57000000
   C     40.22000000    81.29000000   112.28000000
   C     38.76000000    80.85000000   112.19000000
   C     37.99000000    82.15000000   112.03000000
   H     41.06000000    83.08000000   111.56000000
   H     40.98000000    80.53000000   112.05000000
   H     40.43000000    81.64000000   113.29000000
   H     38.71000000    80.28000000   111.27000000
   H     38.50000000    80.40000000   113.15000000
   H     37.13000000    82.11000000   111.36000000
   H     37.69000000    82.36000000   113.05000000
   N     39.40000000    82.33000000   109.00000000
   C     39.11000000    81.66000000   107.74000000
   C     40.19000000    81.51000000   106.68000000
   O     40.95000000    82.46000000   106.47000000
   C     37.93000000    82.35000000   107.08000000
   C     37.33000000    81.83000000   105.77000000
   C     36.77000000    80.43000000   105.91000000
   O     35.53000000    80.28000000   105.92000000
   O     37.62000000    79.52000000   106.08000000
   H     38.97000000    83.17000000   109.37000000
   H     38.84000000    80.63000000   107.96000000
   H     38.07000000    83.42000000   106.93000000
   H     37.08000000    82.15000000   107.74000000
   H     38.17000000    81.85000000   105.07000000
   H     36.63000000    82.59000000   105.43000000
   N     40.25000000    80.33000000   106.06000000
   C     41.12000000    79.94000000   104.97000000
   H     42.08600000    79.63100000   105.37000000
   H     40.67000000    79.11000000   104.42500000
   H     41.26000000    80.78500000   104.29600000
   H     39.53000000    79.70000000   106.37000000
  Ca     42.82000000    89.93000000   107.10500000
   O     42.13000000    88.89000000   109.62500000
   H     42.64000000    88.28000000   110.16500000
   H     41.36000000    89.09000000   110.15500000
   O     42.98000000    92.78000000   106.95500000
   H     42.72000000    93.57000000   106.48500000
   H     43.50000000    93.11000000   107.69500000
   O     42.31000000    90.78000000   104.55500000
   H     42.06000000    91.62000000   104.16500000
   H     42.27000000    90.15000000   103.83500000
   O     43.52000000    88.03000000   105.16500000
   H     42.73000000    87.54000000   104.90500000
   H     44.25000000    87.48000000   104.86500000
   O     45.35000000    90.69000000   105.94500000
   H     45.85000000    91.02000000   106.69500000
   H     45.93000000    90.85000000   105.19500000
   O     44.98000000    88.16000000   108.20500000
   H     44.50000000    87.35000000   108.39500000
   H     45.74000000    88.13000000   108.78500000
   O     40.88000000    91.26000000   108.28500000
   H     40.26000000    91.04000000   108.98500000
   H     40.73000000    92.19000000   108.11500000

Ca 1.00



