%chk=loop3.holoCaM.run22.water3.chk
%nprocshared=20
%mem=10GB
%nosave
#b3lyp/svp scf=(tight,noincore,xqc) Test 
#IOP(5/87=12) Density=Current Pop=(MK,readradii) iop(6/33=2) iop(6/42=6)

loop3.holoCaM.run22.water3 

   0  1 
   C     85.33000000    32.03000000    28.79000000
   C     86.78000000    31.87000000    29.23000000
   O     87.17000000    30.87000000    29.83000000
   H     84.74200000    32.42700000    29.61700000
   H     85.28000000    32.71800000    27.94600000
   H     84.93100000    31.06000000    28.49300000
   N     87.63000000    32.89000000    29.06000000
   C     88.97000000    32.87000000    29.61000000
   C     88.96000000    33.22000000    31.09000000
   O     88.57000000    34.32000000    31.49000000
   C     89.81000000    33.82000000    28.76000000
   C     91.30000000    33.78000000    29.10000000
   O     91.75000000    33.20000000    30.11000000
   O     92.06000000    34.58000000    28.53000000
   H     87.38000000    33.72000000    28.53000000
   H     89.37000000    31.88000000    29.39000000
   H     89.32000000    34.78000000    28.86000000
   H     89.73000000    33.42000000    27.75000000
   N     89.51000000    32.34000000    31.92000000
   C     89.25000000    32.45000000    33.34000000
   C     90.17000000    33.43000000    34.05000000
   O     89.81000000    33.90000000    35.13000000
   C     89.20000000    31.12000000    34.08000000
   C     88.05000000    30.26000000    33.53000000
   C     86.64000000    30.79000000    33.76000000
   C     86.06000000    31.70000000    32.68000000
   N     84.70000000    32.09000000    33.12000000
   H     90.10000000    31.64000000    31.49000000
   H     88.28000000    32.94000000    33.48000000
   H     89.01000000    31.28000000    35.14000000
   H     90.17000000    30.64000000    33.97000000
   H     88.17000000    29.35000000    34.12000000
   H     88.25000000    30.07000000    32.48000000
   H     86.70000000    31.24000000    34.76000000
   H     85.92000000    29.97000000    33.77000000
   H     86.09000000    31.33000000    31.66000000
   H     86.72000000    32.57000000    32.65000000
   H     84.10000000    32.49000000    32.41000000
   H     84.29000000    31.19000000    33.32000000
   H     84.72000000    32.62000000    33.97000000
   N     91.30000000    33.81000000    33.45000000
   C     92.29000000    34.78000000    33.89000000
   C     92.48000000    35.93000000    32.91000000
   O     93.18000000    36.87000000    33.28000000
   C     93.61000000    34.16000000    34.32000000
   C     94.26000000    33.14000000    33.39000000
   O     93.80000000    33.05000000    32.22000000
   O     95.30000000    32.55000000    33.72000000
   H     91.42000000    33.39000000    32.54000000
   H     91.89000000    35.30000000    34.76000000
   H     93.36000000    33.55000000    35.19000000
   H     94.34000000    34.91000000    34.63000000
   N     91.98000000    35.83000000    31.68000000
   C     92.05000000    36.86000000    30.66000000
   C     93.39000000    36.94000000    29.95000000
   O     93.64000000    37.94000000    29.28000000
   H     91.77000000    34.89000000    31.38000000
   H     91.68000000    37.80000000    31.08000000
   H     91.29000000    36.53000000    29.96000000
   N     94.24000000    35.91000000    30.00000000
   C     95.54000000    35.92000000    29.37000000
   C     95.50000000    35.84000000    27.85000000
   O     96.55000000    36.03000000    27.24000000
   C     96.27000000    34.83000000    30.15000000
   C     96.28000000    33.53000000    29.36000000
   N     97.44000000    33.01000000    28.95000000
   O     95.24000000    32.95000000    29.05000000
   H     93.91000000    35.07000000    30.47000000
   H     96.01000000    36.86000000    29.67000000
   H     95.83000000    34.61000000    31.12000000
   H     97.31000000    35.15000000    30.22000000
   H     98.29000000    33.48000000    29.22000000
   H     97.49000000    32.06000000    28.60000000
   N     94.34000000    35.53000000    27.28000000
   C     94.11000000    35.65000000    25.85000000
   C     94.07000000    34.27000000    25.21000000
   O     94.06000000    34.11000000    23.99000000
   H     93.55000000    35.34000000    27.88000000
   H     94.91000000    36.22000000    25.38000000
   H     93.14000000    36.10000000    25.66000000
   N     94.06000000    33.20000000    26.00000000
   C     94.32000000    31.84000000    25.56000000
   C     93.41000000    30.89000000    26.32000000
   O     93.41000000    30.87000000    27.55000000
   C     95.74000000    31.33000000    25.80000000
   C     96.82000000    32.02000000    25.01000000
   C     97.53000000    33.11000000    25.53000000
   C     96.96000000    31.72000000    23.65000000
   C     98.54000000    33.70000000    24.78000000
   C     97.91000000    32.33000000    22.81000000
   C     98.68000000    33.33000000    23.42000000
   O     99.69000000    33.92000000    22.72000000
   H     94.10000000    33.34000000    27.00000000
   H     94.06000000    31.77000000    24.50000000
   H     95.85000000    30.25000000    25.68000000
   H     95.93000000    31.42000000    26.87000000
   H     97.36000000    33.44000000    26.55000000
   H     96.35000000    30.96000000    23.19000000
   H     99.19000000    34.42000000    25.25000000
   H     98.02000000    31.98000000    21.80000000
   H     99.74000000    33.65000000    21.80000000
   N     92.75000000    29.98000000    25.61000000
   C     91.93000000    29.00000000    26.29000000
   C     92.62000000    27.64000000    26.33000000
   O     93.02000000    27.16000000    25.27000000
   C     90.53000000    28.97000000    25.68000000
   C     89.84000000    30.22000000    26.23000000
   C     89.77000000    27.74000000    26.17000000
   C     88.59000000    30.67000000    25.49000000
   H     92.90000000    29.90000000    24.62000000
   H     91.90000000    29.22000000    27.36000000
   H     90.62000000    29.06000000    24.60000000
   H     90.58000000    31.02000000    26.29000000
   H     89.70000000    30.17000000    27.31000000
   H     90.18000000    26.80000000    25.80000000
   H     89.59000000    27.75000000    27.24000000
   H     88.78000000    27.83000000    25.73000000
   H     88.78000000    30.93000000    24.45000000
   H     87.84000000    29.88000000    25.51000000
   H     88.28000000    31.62000000    25.91000000
   N     92.57000000    27.00000000    27.50000000
   C     93.07000000    25.68000000    27.81000000
   C     91.93000000    24.71000000    28.11000000
   O     90.79000000    25.09000000    28.37000000
   C     94.02000000    25.77000000    29.00000000
   O     93.25000000    26.34000000    30.03000000
   H     92.25000000    27.54000000    28.28000000
   H     93.64000000    25.40000000    26.93000000
   H     94.96000000    26.30000000    28.84000000
   H     94.23000000    24.74000000    29.29000000
   H     93.08000000    27.25000000    29.77000000
   N     92.25000000    23.42000000    28.18000000
   C     91.31000000    22.33000000    28.37000000
   C     90.51000000    22.58000000    29.64000000
   O     89.31000000    22.33000000    29.66000000
   C     92.16000000    21.06000000    28.35000000
   H     93.20000000    23.14000000    27.99000000
   H     90.64000000    22.43000000    27.52000000
   H     91.50000000    20.20000000    28.35000000
   H     92.76000000    21.15000000    27.45000000
   H     92.76000000    21.02000000    29.26000000
   N     91.13000000    23.04000000    30.73000000
   C     90.50000000    23.37000000    32.00000000
   C     89.37000000    24.39000000    31.89000000
   O     88.42000000    24.31000000    32.66000000
   C     91.52000000    24.08000000    32.88000000
   H     92.12000000    23.26000000    30.75000000
   H     90.07000000    22.49000000    32.48000000
   H     92.10000000    24.86000000    32.40000000
   H     90.95000000    24.43000000    33.74000000
   H     92.22000000    23.31000000    33.23000000
   N     89.46000000    25.33000000    30.94000000
   C     88.63000000    26.47000000    30.61000000
   C     87.59000000    25.96000000    29.61000000
   O     86.44000000    26.34000000    29.83000000
   C     89.40000000    27.74000000    30.26000000
   C     90.56000000    28.14000000    31.15000000
   C     91.43000000    29.14000000    30.40000000
   O     91.35000000    30.35000000    30.71000000
   O     92.31000000    28.78000000    29.59000000
   H     90.14000000    25.17000000    30.21000000
   H     88.09000000    26.60000000    31.55000000
   H     88.79000000    28.57000000    29.91000000
   H     89.95000000    27.42000000    29.37000000
   H     91.19000000    27.29000000    31.40000000
   H     90.18000000    28.49000000    32.11000000
   N     87.92000000    25.03000000    28.71000000
   C     86.95000000    24.56000000    27.75000000
   H     86.08200000    25.22000000    27.75800000
   H     87.39500000    24.55800000    26.75500000
   H     86.63900000    23.54900000    28.01200000
   H     88.90000000    24.78000000    28.64000000
  Ca     93.53000000    31.36000000    30.19000000
   O     93.64000000    29.40000000    32.38000000
   H     93.03000000    29.49000000    33.11000000
   H     94.04000000    28.54000000    32.50000000
   O     96.25000000    31.41000000    31.47000000
   H     96.19000000    31.90000000    32.29000000
   H     97.06000000    30.91000000    31.55000000
   O     95.48000000    29.53000000    29.38000000
   H     95.92000000    29.22000000    28.59000000
   H     96.19000000    29.77000000    29.98000000

Ca 1.00



