%chk=loop1.holoCaM-CaMKII.run22.water2.chk
%nprocshared=20
%mem=10GB
%nosave
#b3lyp/svp scf=(tight,noincore,xqc) Test 
#IOP(5/87=12) Density=Current Pop=(MK,readradii) iop(6/33=2) iop(6/42=6)

loop1.holoCaM-CaMKII.run22.water2 

   0  1 
   C     89.62000000    52.75000000    16.22000000
   C     90.69000000    52.22000000    15.27000000
   O     90.45000000    51.29000000    14.50000000
   H     88.70000000    52.18100000    16.08400000
   H     89.96300000    52.64500000    17.24900000
   H     89.43100000    53.80200000    16.00500000
   N     91.81000000    52.93000000    15.34000000
   C     92.99000000    52.51000000    14.60000000
   C     93.64000000    51.29000000    15.24000000
   O     94.36000000    51.34000000    16.23000000
   C     94.03000000    53.61000000    14.46000000
   C     95.28000000    53.18000000    13.71000000
   O     96.33000000    53.80000000    13.96000000
   O     95.15000000    52.31000000    12.82000000
   H     91.89000000    53.81000000    15.83000000
   H     92.71000000    52.19000000    13.59000000
   H     94.18000000    54.09000000    15.43000000
   H     93.62000000    54.41000000    13.84000000
   N     93.33000000    50.09000000    14.75000000
   C     93.65000000    48.85000000    15.43000000
   C     95.07000000    48.36000000    15.22000000
   O     95.46000000    47.37000000    15.84000000
   C     92.51000000    47.88000000    15.10000000
   C     92.32000000    46.77000000    16.13000000
   C     92.02000000    47.21000000    17.57000000
   C     90.93000000    48.27000000    17.59000000
   N     90.49000000    48.46000000    18.99000000
   H     92.86000000    50.10000000    13.85000000
   H     93.69000000    49.09000000    16.49000000
   H     92.63000000    47.52000000    14.08000000
   H     91.57000000    48.42000000    15.10000000
   H     93.19000000    46.12000000    16.17000000
   H     91.48000000    46.21000000    15.74000000
   H     92.96000000    47.54000000    18.00000000
   H     91.77000000    46.32000000    18.15000000
   H     90.17000000    48.00000000    16.87000000
   H     91.39000000    49.22000000    17.29000000
   H     91.11000000    49.06000000    19.52000000
   H     89.58000000    48.88000000    19.09000000
   H     90.42000000    47.56000000    19.45000000
   N     95.88000000    48.99000000    14.37000000
   C     97.23000000    48.58000000    14.07000000
   C     98.28000000    49.69000000    14.16000000
   O     99.40000000    49.48000000    13.69000000
   C     97.20000000    47.76000000    12.79000000
   C     96.54000000    48.42000000    11.59000000
   O     96.11000000    47.71000000    10.65000000
   O     96.39000000    49.66000000    11.59000000
   H     95.54000000    49.84000000    13.93000000
   H     97.54000000    47.79000000    14.75000000
   H     96.75000000    46.79000000    12.99000000
   H     98.23000000    47.54000000    12.49000000
   N     97.92000000    50.85000000    14.70000000
   C     98.89000000    51.86000000    15.06000000
   C     99.55000000    52.58000000    13.90000000
   O    100.38000000    53.44000000    14.16000000
   H     96.94000000    51.00000000    14.91000000
   H     99.60000000    51.36000000    15.73000000
   H     98.25000000    52.63000000    15.49000000
   N     99.12000000    52.27000000    12.67000000
   C     99.65000000    52.97000000    11.52000000
   C     99.40000000    54.47000000    11.43000000
   O    100.18000000    55.26000000    10.90000000
   C     99.33000000    52.21000000    10.24000000
   C     97.85000000    52.17000000     9.87000000
   O     97.48000000    51.34000000     9.01000000
   O     96.99000000    52.80000000    10.51000000
   H     98.39000000    51.58000000    12.58000000
   H    100.74000000    52.92000000    11.44000000
   H     99.79000000    51.23000000    10.26000000
   H     99.86000000    52.81000000     9.50000000
   N     98.29000000    54.91000000    12.03000000
   C     97.88000000    56.30000000    12.11000000
   C     96.80000000    56.81000000    11.17000000
   O     96.78000000    58.01000000    10.91000000
   H     97.61000000    54.26000000    12.40000000
   H     98.74000000    56.97000000    12.19000000
   H     97.35000000    56.51000000    13.04000000
   N     95.94000000    55.89000000    10.73000000
   C     94.90000000    56.00000000     9.73000000
   C     93.84000000    54.93000000     9.95000000
   O     94.13000000    53.79000000    10.30000000
   C     95.42000000    55.85000000     8.30000000
   C     96.14000000    57.09000000     7.77000000
   O     96.35000000    54.80000000     8.16000000
   H     96.12000000    54.95000000    11.05000000
   H     94.45000000    56.99000000     9.87000000
   H     94.54000000    55.69000000     7.68000000
   H     95.84000000    54.00000000     8.32000000
   H     95.59000000    58.00000000     8.01000000
   H     97.10000000    57.21000000     8.27000000
   H     96.24000000    57.02000000     6.69000000
   N     92.55000000    55.26000000     9.96000000
   C     91.48000000    54.30000000    10.15000000
   C     90.89000000    53.90000000     8.80000000
   O     90.61000000    54.82000000     8.05000000
   C     90.43000000    54.97000000    11.03000000
   C     90.89000000    55.27000000    12.45000000
   C     89.19000000    54.10000000    11.23000000
   C     90.09000000    56.34000000    13.20000000
   H     92.32000000    56.17000000     9.58000000
   H     91.78000000    53.42000000    10.72000000
   H     90.14000000    55.92000000    10.58000000
   H     91.96000000    55.44000000    12.53000000
   H     90.83000000    54.33000000    13.01000000
   H     88.79000000    53.89000000    10.24000000
   H     89.33000000    53.21000000    11.84000000
   H     88.41000000    54.69000000    11.71000000
   H     90.56000000    56.47000000    14.18000000
   H     90.09000000    57.31000000    12.70000000
   H     89.08000000    55.95000000    13.35000000
   N     90.90000000    52.61000000     8.45000000
   C     90.36000000    52.06000000     7.22000000
   C     88.85000000    52.02000000     7.34000000
   O     88.37000000    51.96000000     8.47000000
   C     90.83000000    50.63000000     6.99000000
   C     92.32000000    50.56000000     6.65000000
   O     90.67000000    49.79000000     8.11000000
   H     91.33000000    51.88000000     9.00000000
   H     90.57000000    52.68000000     6.35000000
   H     90.23000000    50.28000000     6.15000000
   H     91.21000000    49.00000000     8.03000000
   H     92.63000000    51.41000000     6.03000000
   H     92.87000000    50.58000000     7.59000000
   H     92.61000000    49.61000000     6.21000000
   N     88.07000000    52.08000000     6.25000000
   C     86.64000000    51.87000000     6.35000000
   C     86.34000000    50.53000000     7.01000000
   O     85.33000000    50.38000000     7.70000000
   C     85.89000000    51.97000000     5.03000000
   C     84.37000000    52.12000000     5.11000000
   O     86.29000000    53.04000000     4.20000000
   H     88.50000000    52.13000000     5.34000000
   H     86.29000000    52.71000000     6.95000000
   H     85.97000000    51.04000000     4.46000000
   H     87.22000000    52.97000000     4.00000000
   H     84.02000000    52.19000000     4.08000000
   H     83.94000000    51.28000000     5.66000000
   H     84.08000000    53.03000000     5.64000000
   N     87.21000000    49.55000000     6.78000000
   C     87.12000000    48.27000000     7.47000000
   C     87.12000000    48.42000000     8.98000000
   O     86.30000000    47.77000000     9.62000000
   C     88.32000000    47.40000000     7.11000000
   C     88.13000000    45.95000000     7.55000000
   C     86.79000000    45.22000000     7.39000000
   C     86.47000000    45.27000000     5.90000000
   N     85.02000000    45.19000000     5.67000000
   H     87.81000000    49.79000000     6.01000000
   H     86.11000000    47.91000000     7.27000000
   H     89.18000000    47.85000000     7.61000000
   H     88.36000000    47.47000000     6.02000000
   H     88.38000000    45.86000000     8.60000000
   H     88.94000000    45.41000000     7.06000000
   H     86.02000000    45.68000000     8.00000000
   H     86.85000000    44.19000000     7.74000000
   H     87.02000000    44.50000000     5.35000000
   H     86.83000000    46.24000000     5.55000000
   H     84.62000000    46.05000000     5.99000000
   H     84.82000000    45.12000000     4.68000000
   H     84.63000000    44.42000000     6.20000000
   N     88.07000000    49.16000000     9.56000000
   C     88.32000000    49.39000000    10.97000000
   C     87.12000000    50.10000000    11.59000000
   O     86.60000000    49.58000000    12.57000000
   C     89.59000000    50.22000000    11.12000000
   C     90.82000000    49.40000000    11.49000000
   C     92.12000000    50.16000000    11.28000000
   O     92.20000000    51.08000000    10.43000000
   O     93.10000000    49.77000000    11.96000000
   H     88.83000000    49.41000000     8.95000000
   H     88.41000000    48.43000000    11.48000000
   H     89.54000000    51.02000000    11.86000000
   H     89.78000000    50.90000000    10.29000000
   H     90.69000000    48.48000000    10.92000000
   H     90.84000000    49.24000000    12.57000000
   N     86.64000000    51.17000000    10.96000000
   C     85.39000000    51.76000000    11.39000000
   H     84.61000000    50.99900000    11.38800000
   H     85.50400000    52.16000000    12.39800000
   H     85.11400000    52.56400000    10.70800000
   H     87.13000000    51.52000000    10.15000000
  Ca     94.83000000    51.21000000    10.50000000
   O     94.49000000    49.02000000     9.06000000
   H     95.16000000    48.44000000     9.43000000
   H     93.80000000    48.43000000     8.77000000
   O     95.23000000    52.15000000     7.56000000
   H     94.77000000    51.88000000     6.76000000
   H     96.14000000    52.27000000     7.29000000

Ca 1.00



