%chk=loop3.apoCaM-CA-Ng.Init295.run10.water3.chk
%nprocshared=20
%mem=10GB
%nosave
#b3lyp/svp scf=(tight,noincore,xqc) Test 
#IOP(5/87=12) Density=Current Pop=(MK,readradii) iop(6/33=2) iop(6/42=6)

loop3.apoCaM-CA-Ng.Init295.run10.water3 

   0  1 
   C     83.72000000    36.98000000    71.32000000
   C     84.27000000    37.40000000    72.68000000
   O     83.53000000    37.81000000    73.57000000
   H     82.83300000    37.57000000    71.09000000
   H     84.47700000    37.14800000    70.55400000
   H     83.45600000    35.92300000    71.34500000
   N     85.59000000    37.32000000    72.86000000
   C     86.19000000    37.97000000    74.01000000
   C     87.52000000    38.63000000    73.66000000
   O     88.23000000    38.21000000    72.75000000
   C     86.35000000    36.98000000    75.15000000
   C     86.83000000    37.64000000    76.44000000
   O     86.07000000    37.74000000    77.43000000
   O     88.05000000    37.91000000    76.54000000
   H     86.13000000    37.20000000    72.02000000
   H     85.55000000    38.73000000    74.47000000
   H     87.07000000    36.21000000    74.87000000
   H     85.44000000    36.44000000    75.39000000
   N     87.90000000    39.64000000    74.44000000
   C     89.03000000    40.49000000    74.11000000
   C     90.39000000    39.85000000    74.35000000
   O     91.34000000    40.28000000    73.71000000
   C     88.90000000    41.83000000    74.82000000
   C     89.00000000    43.00000000    73.84000000
   C     88.54000000    44.30000000    74.49000000
   C     88.49000000    45.47000000    73.52000000
   N     88.19000000    46.72000000    74.22000000
   H     87.33000000    40.05000000    75.17000000
   H     89.06000000    40.55000000    73.02000000
   H     89.80000000    41.96000000    75.43000000
   H     88.06000000    41.91000000    75.51000000
   H     88.32000000    42.88000000    72.99000000
   H     90.06000000    43.07000000    73.63000000
   H     89.35000000    44.58000000    75.17000000
   H     87.59000000    44.12000000    75.01000000
   H     87.69000000    45.21000000    72.83000000
   H     89.42000000    45.39000000    72.95000000
   H     88.19000000    47.54000000    73.63000000
   H     87.29000000    46.68000000    74.69000000
   H     88.82000000    46.95000000    74.98000000
   N     90.50000000    38.95000000    75.33000000
   C     91.66000000    38.16000000    75.69000000
   C     91.55000000    36.69000000    75.32000000
   O     92.44000000    35.91000000    75.65000000
   C     92.01000000    38.36000000    77.17000000
   C     90.87000000    38.12000000    78.15000000
   O     90.39000000    36.98000000    78.33000000
   O     90.37000000    39.14000000    78.67000000
   H     89.68000000    38.64000000    75.83000000
   H     92.54000000    38.58000000    75.20000000
   H     92.37000000    39.37000000    77.35000000
   H     92.78000000    37.65000000    77.48000000
   N     90.44000000    36.35000000    74.66000000
   C     90.06000000    35.01000000    74.26000000
   C     89.54000000    34.08000000    75.35000000
   O     88.94000000    33.05000000    75.04000000
   H     89.65000000    36.97000000    74.53000000
   H     90.87000000    34.40000000    73.87000000
   H     89.25000000    35.04000000    73.53000000
   N     89.72000000    34.32000000    76.65000000
   C     89.05000000    33.58000000    77.70000000
   C     87.89000000    34.38000000    78.28000000
   O     87.96000000    35.50000000    78.80000000
   C     90.16000000    33.25000000    78.69000000
   C     89.64000000    32.62000000    79.98000000
   N     90.29000000    32.80000000    81.13000000
   O     88.56000000    32.04000000    79.99000000
   H     90.33000000    35.06000000    76.94000000
   H     88.63000000    32.66000000    77.28000000
   H     90.64000000    34.18000000    79.00000000
   H     90.99000000    32.67000000    78.28000000
   H     91.17000000    33.31000000    81.13000000
   H     89.96000000    32.33000000    81.96000000
   N     86.74000000    33.74000000    78.12000000
   C     85.39000000    34.25000000    78.24000000
   C     84.80000000    34.62000000    79.60000000
   O     83.57000000    34.65000000    79.70000000
   H     86.83000000    32.78000000    77.82000000
   H     84.68000000    33.51000000    77.86000000
   H     85.25000000    35.14000000    77.62000000
   N     85.63000000    34.90000000    80.60000000
   C     85.16000000    35.56000000    81.80000000
   C     85.20000000    37.06000000    81.54000000
   O     86.16000000    37.60000000    80.99000000
   C     86.08000000    35.13000000    82.94000000
   C     86.00000000    33.67000000    83.32000000
   C     86.99000000    32.79000000    82.88000000
   C     84.89000000    33.27000000    84.08000000
   C     86.85000000    31.43000000    83.16000000
   C     84.79000000    31.92000000    84.43000000
   C     85.76000000    31.02000000    83.95000000
   O     85.72000000    29.68000000    84.18000000
   H     86.64000000    34.78000000    80.54000000
   H     84.17000000    35.19000000    82.07000000
   H     85.60000000    35.69000000    83.74000000
   H     87.07000000    35.58000000    82.81000000
   H     87.83000000    33.14000000    82.29000000
   H     84.07000000    33.93000000    84.35000000
   H     87.51000000    30.72000000    82.68000000
   H     84.00000000    31.48000000    85.02000000
   H     84.80000000    29.41000000    84.13000000
   N     84.22000000    37.73000000    82.15000000
   C     83.99000000    39.14000000    82.37000000
   C     85.19000000    39.92000000    82.89000000
   O     86.21000000    39.37000000    83.29000000
   C     83.43000000    39.83000000    81.13000000
   C     82.28000000    39.06000000    80.49000000
   C     84.50000000    40.25000000    80.13000000
   C     81.59000000    39.65000000    79.26000000
   H     83.47000000    37.17000000    82.54000000
   H     83.18000000    39.26000000    83.10000000
   H     82.99000000    40.78000000    81.43000000
   H     81.50000000    39.01000000    81.25000000
   H     82.69000000    38.10000000    80.19000000
   H     85.37000000    40.72000000    80.58000000
   H     84.81000000    39.42000000    79.49000000
   H     84.02000000    40.95000000    79.45000000
   H     81.23000000    40.65000000    79.49000000
   H     82.23000000    39.61000000    78.37000000
   H     80.65000000    39.15000000    79.05000000
   N     85.02000000    41.24000000    83.00000000
   C     85.88000000    42.10000000    83.78000000
   C     85.60000000    42.04000000    85.27000000
   O     86.54000000    42.25000000    86.03000000
   C     85.78000000    43.50000000    83.20000000
   O     84.41000000    43.81000000    83.03000000
   H     84.12000000    41.62000000    82.74000000
   H     86.92000000    41.81000000    83.63000000
   H     86.33000000    43.52000000    82.26000000
   H     86.27000000    44.16000000    83.92000000
   H     84.35000000    44.75000000    82.85000000
   N     84.37000000    41.77000000    85.72000000
   C     83.96000000    41.61000000    87.10000000
   C     84.70000000    42.46000000    88.13000000
   O     85.40000000    41.89000000    88.97000000
   C     83.86000000    40.12000000    87.43000000
   H     83.65000000    41.49000000    85.08000000
   H     82.95000000    42.00000000    87.17000000
   H     84.80000000    39.65000000    87.13000000
   H     83.65000000    39.98000000    88.49000000
   H     83.07000000    39.66000000    86.82000000
   N     84.56000000    43.78000000    88.12000000
   C     83.99000000    44.79000000    87.25000000
   C     82.59000000    45.28000000    87.58000000
   O     82.40000000    45.80000000    88.68000000
   C     85.05000000    45.87000000    87.06000000
   H     85.21000000    44.20000000    88.78000000
   H     83.83000000    44.33000000    86.27000000
   H     85.18000000    46.41000000    88.00000000
   H     85.99000000    45.48000000    86.68000000
   H     84.65000000    46.53000000    86.30000000
   N     81.51000000    45.19000000    86.80000000
   C     81.28000000    44.47000000    85.56000000
   C     79.93000000    43.78000000    85.38000000
   O     79.92000000    42.79000000    84.65000000
   C     81.55000000    45.43000000    84.41000000
   C     80.52000000    46.54000000    84.21000000
   C     80.84000000    47.44000000    83.03000000
   O     80.33000000    47.26000000    81.90000000
   O     81.67000000    48.38000000    83.13000000
   H     80.71000000    45.56000000    87.29000000
   H     82.04000000    43.70000000    85.46000000
   H     81.57000000    44.89000000    83.46000000
   H     82.52000000    45.90000000    84.58000000
   H     80.39000000    47.07000000    85.16000000
   H     79.59000000    46.07000000    83.90000000
   N     78.79000000    44.11000000    85.99000000
   C     77.55000000    43.42000000    85.72000000
   H     76.79200000    44.14200000    85.41500000
   H     77.70300000    42.69600000    84.92000000
   H     77.21800000    42.90300000    86.62000000
   H     78.80000000    44.95000000    86.55000000
  Ca     88.00000000    38.15000000    79.10000000
   O     87.91000000    39.98000000    81.22000000
   H     88.72000000    40.07000000    81.72000000
   H     87.28000000    39.61000000    81.84000000
   O     86.84000000    40.45000000    78.06000000
   H     86.83000000    41.35000000    78.37000000
   H     86.38000000    40.48000000    77.22000000
   O     89.21000000    37.04000000    81.23000000
   H     90.00000000    36.59000000    80.94000000
   H     89.34000000    37.17000000    82.17000000

Ca 1.00



