%chk=loop1.apoCaM-CA-Ng.Init295.run21.water6.chk
%nprocshared=20
%mem=10GB
%nosave
#b3lyp/svp scf=(tight,noincore,xqc) Test 
#IOP(5/87=12) Density=Current Pop=(MK,readradii) iop(6/33=2) iop(6/42=6)

loop1.apoCaM-CA-Ng.Init295.run21.water6 

   0  1 
   C     67.85000000    56.27000000    46.22000000
   C     67.06000000    55.54000000    45.14000000
   O     66.30000000    54.67000000    45.55000000
   H     68.75400000    56.69500000    45.78400000
   H     67.23900000    57.06900000    46.64000000
   H     68.12300000    55.56800000    47.00800000
   N     67.18000000    55.77000000    43.83000000
   C     66.37000000    55.09000000    42.83000000
   C     64.91000000    55.48000000    43.01000000
   O     64.07000000    54.61000000    42.81000000
   C     66.64000000    53.59000000    42.74000000
   C     66.21000000    52.92000000    41.44000000
   O     66.39000000    51.69000000    41.31000000
   O     65.91000000    53.62000000    40.45000000
   H     67.85000000    56.44000000    43.48000000
   H     66.67000000    55.56000000    41.90000000
   H     66.27000000    53.08000000    43.63000000
   H     67.72000000    53.45000000    42.78000000
   N     64.57000000    56.75000000    43.22000000
   C     63.24000000    57.32000000    43.31000000
   C     62.96000000    58.56000000    42.47000000
   O     61.78000000    58.86000000    42.32000000
   C     62.84000000    57.51000000    44.77000000
   C     63.64000000    58.55000000    45.56000000
   C     63.12000000    58.73000000    46.98000000
   C     63.98000000    59.77000000    47.70000000
   N     63.24000000    60.33000000    48.84000000
   H     65.28000000    57.37000000    43.58000000
   H     62.53000000    56.55000000    42.98000000
   H     62.86000000    56.54000000    45.26000000
   H     61.79000000    57.79000000    44.81000000
   H     63.55000000    59.50000000    45.03000000
   H     64.64000000    58.11000000    45.54000000
   H     63.04000000    57.74000000    47.43000000
   H     62.06000000    58.96000000    47.00000000
   H     64.11000000    60.65000000    47.06000000
   H     64.92000000    59.32000000    48.03000000
   H     62.29000000    60.52000000    48.55000000
   H     63.18000000    59.74000000    49.65000000
   H     63.58000000    61.26000000    49.05000000
   N     63.92000000    59.31000000    41.91000000
   C     63.62000000    60.53000000    41.19000000
   C     62.83000000    60.20000000    39.94000000
   O     61.91000000    60.90000000    39.52000000
   C     64.96000000    61.18000000    40.87000000
   C     64.78000000    62.60000000    40.35000000
   O     65.87000000    63.12000000    40.03000000
   O     63.65000000    63.14000000    40.33000000
   H     64.86000000    59.23000000    42.26000000
   H     63.07000000    61.23000000    41.83000000
   H     65.56000000    60.54000000    40.22000000
   H     65.51000000    61.28000000    41.80000000
   N     63.17000000    59.11000000    39.23000000
   C     62.36000000    58.37000000    38.29000000
   C     62.46000000    58.94000000    36.88000000
   O     62.19000000    58.22000000    35.93000000
   H     64.08000000    58.72000000    39.42000000
   H     61.30000000    58.35000000    38.54000000
   H     62.70000000    57.34000000    38.23000000
   N     62.97000000    60.16000000    36.71000000
   C     63.11000000    60.97000000    35.51000000
   C     64.43000000    61.73000000    35.48000000
   O     64.55000000    62.81000000    34.91000000
   C     61.86000000    61.82000000    35.26000000
   C     61.70000000    63.06000000    36.14000000
   O     61.46000000    64.12000000    35.53000000
   O     61.77000000    63.12000000    37.38000000
   H     63.15000000    60.63000000    37.59000000
   H     63.09000000    60.23000000    34.72000000
   H     61.01000000    61.16000000    35.34000000
   H     61.85000000    62.11000000    34.21000000
   N     65.41000000    61.27000000    36.27000000
   C     66.72000000    61.88000000    36.37000000
   C     67.50000000    61.37000000    37.57000000
   O     67.22000000    60.30000000    38.10000000
   H     65.36000000    60.36000000    36.69000000
   H     66.83000000    62.96000000    36.32000000
   H     67.38000000    61.52000000    35.58000000
   N     68.46000000    62.16000000    38.04000000
   C     69.47000000    61.83000000    39.03000000
   C     70.86000000    62.06000000    38.47000000
   O     71.07000000    63.12000000    37.88000000
   C     69.43000000    62.67000000    40.31000000
   C     69.21000000    64.16000000    40.10000000
   O     68.35000000    62.15000000    41.06000000
   H     68.61000000    63.07000000    37.63000000
   H     69.43000000    60.77000000    39.28000000
   H     70.33000000    62.44000000    40.88000000
   H     67.54000000    62.25000000    40.57000000
   H     68.45000000    64.39000000    39.34000000
   H     68.90000000    64.61000000    41.04000000
   H     70.06000000    64.71000000    39.69000000
   N     71.75000000    61.14000000    38.84000000
   C     73.18000000    61.34000000    38.77000000
   C     73.80000000    60.38000000    37.77000000
   O     74.88000000    60.62000000    37.23000000
   C     73.81000000    61.07000000    40.14000000
   C     72.97000000    61.55000000    41.32000000
   C     75.18000000    61.73000000    40.22000000
   C     73.53000000    61.37000000    42.73000000
   H     71.46000000    60.27000000    39.27000000
   H     73.49000000    62.36000000    38.53000000
   H     73.94000000    59.99000000    40.26000000
   H     71.95000000    61.16000000    41.29000000
   H     72.72000000    62.60000000    41.17000000
   H     75.04000000    62.81000000    40.23000000
   H     75.68000000    61.41000000    41.14000000
   H     75.86000000    61.56000000    39.38000000
   H     72.86000000    61.96000000    43.36000000
   H     73.61000000    60.33000000    43.06000000
   H     74.45000000    61.94000000    42.85000000
   N     73.17000000    59.23000000    37.49000000
   C     73.68000000    58.16000000    36.66000000
   C     73.43000000    56.77000000    37.24000000
   O     72.54000000    56.61000000    38.08000000
   C     73.00000000    58.26000000    35.30000000
   C     71.51000000    57.91000000    35.33000000
   O     73.30000000    59.47000000    34.65000000
   H     72.35000000    59.03000000    38.05000000
   H     74.76000000    58.27000000    36.58000000
   H     73.40000000    57.50000000    34.65000000
   H     73.08000000    60.18000000    35.26000000
   H     71.00000000    58.19000000    34.41000000
   H     71.34000000    56.84000000    35.44000000
   H     70.97000000    58.35000000    36.17000000
   N     74.22000000    55.83000000    36.73000000
   C     74.05000000    54.44000000    37.11000000
   C     75.29000000    53.85000000    37.76000000
   O     75.24000000    52.76000000    38.31000000
   C     73.64000000    53.79000000    35.79000000
   C     73.00000000    52.41000000    35.89000000
   O     74.75000000    53.74000000    34.92000000
   H     74.91000000    55.99000000    36.00000000
   H     73.25000000    54.39000000    37.84000000
   H     72.91000000    54.49000000    35.39000000
   H     74.54000000    53.43000000    34.03000000
   H     71.95000000    52.33000000    36.16000000
   H     72.96000000    51.87000000    34.94000000
   H     73.52000000    51.91000000    36.71000000
   N     76.42000000    54.56000000    37.83000000
   C     77.61000000    54.23000000    38.60000000
   C     78.02000000    55.36000000    39.53000000
   O     77.81000000    56.56000000    39.33000000
   C     78.78000000    53.76000000    37.74000000
   C     80.02000000    53.29000000    38.50000000
   C     81.00000000    52.60000000    37.56000000
   C     82.21000000    52.19000000    38.40000000
   N     83.21000000    51.49000000    37.56000000
   H     76.47000000    55.48000000    37.42000000
   H     77.37000000    53.41000000    39.27000000
   H     79.07000000    54.56000000    37.06000000
   H     78.43000000    52.97000000    37.08000000
   H     79.63000000    52.63000000    39.27000000
   H     80.55000000    54.08000000    39.02000000
   H     81.31000000    53.24000000    36.73000000
   H     80.58000000    51.69000000    37.13000000
   H     81.89000000    51.43000000    39.11000000
   H     82.63000000    53.06000000    38.90000000
   H     83.74000000    50.85000000    38.13000000
   H     82.84000000    51.04000000    36.74000000
   H     83.86000000    52.20000000    37.27000000
   N     78.68000000    55.04000000    40.64000000
   C     79.39000000    55.96000000    41.50000000
   C     78.59000000    57.12000000    42.07000000
   O     78.92000000    58.29000000    41.89000000
   C     80.08000000    55.06000000    42.52000000
   C     81.55000000    54.77000000    42.22000000
   C     82.36000000    55.99000000    41.83000000
   O     82.19000000    57.11000000    42.35000000
   O     83.30000000    55.89000000    41.01000000
   H     78.71000000    54.04000000    40.78000000
   H     80.12000000    56.49000000    40.88000000
   H     79.66000000    54.06000000    42.47000000
   H     80.01000000    55.44000000    43.54000000
   H     81.69000000    54.09000000    41.38000000
   H     81.96000000    54.24000000    43.09000000
   N     77.44000000    56.98000000    42.74000000
   C     76.67000000    55.80000000    43.10000000
   H     75.70900000    55.82300000    42.58500000
   H     77.21800000    54.90500000    42.80600000
   H     76.50400000    55.78800000    44.17700000
   H     77.04000000    57.85000000    43.04000000
  Ca     61.34000000    63.91000000    39.89000000
   O     61.99000000    64.16000000    42.50000000
   H     62.95000000    64.15000000    42.43000000
   H     61.82000000    64.52000000    43.37000000
   O     59.45000000    65.54000000    40.75000000
   H     59.65000000    66.22000000    41.39000000
   H     58.51000000    65.64000000    40.59000000
   O     59.00000000    63.12000000    38.66000000
   H     58.56000000    63.55000000    37.93000000
   H     58.37000000    62.45000000    38.95000000
   O     61.32000000    65.88000000    38.04000000
   H     61.01000000    66.75000000    37.79000000
   H     61.42000000    65.41000000    37.21000000
   O     62.87000000    66.19000000    40.64000000
   H     62.73000000    67.08000000    40.96000000
   H     63.71000000    65.93000000    41.02000000
   O     59.55000000    62.33000000    41.58000000
   H     59.06000000    62.90000000    42.18000000
   H     59.72000000    61.54000000    42.09000000

Ca 1.00



