%chk=loop2.apoCaM-CA-Ng.Init293.run70.water6.chk
%nprocshared=20
%mem=10GB
%nosave
#b3lyp/svp scf=(tight,noincore,xqc) Test 
#IOP(5/87=12) Density=Current Pop=(MK,readradii) iop(6/33=2) iop(6/42=6)

loop2.apoCaM-CA-Ng.Init293.run70.water6 

   -2  1 
   C     92.32000000    90.92000000    45.12000000
   C     92.04000000    91.83000000    46.31000000
   O     90.98000000    92.44000000    46.44000000
   H     93.34800000    90.56100000    45.17200000
   H     91.63800000    90.07000000    45.14300000
   H     92.17600000    91.47700000    44.19400000
   N     93.07000000    92.12000000    47.11000000
   C     93.07000000    93.09000000    48.18000000
   C     92.91000000    94.54000000    47.74000000
   O     92.03000000    95.24000000    48.23000000
   C     94.34000000    92.87000000    49.00000000
   C     94.29000000    93.66000000    50.30000000
   O     93.24000000    93.76000000    50.98000000
   O     95.34000000    94.20000000    50.70000000
   H     93.91000000    91.57000000    47.04000000
   H     92.24000000    92.82000000    48.83000000
   H     95.22000000    93.14000000    48.41000000
   H     94.28000000    91.79000000    49.11000000
   N     93.81000000    95.00000000    46.87000000
   C     93.99000000    96.38000000    46.46000000
   C     92.73000000    97.03000000    45.91000000
   O     92.73000000    98.23000000    45.63000000
   C     94.64000000    97.10000000    47.64000000
   H     94.52000000    94.36000000    46.52000000
   H     94.75000000    96.41000000    45.68000000
   H     93.91000000    97.21000000    48.44000000
   H     95.50000000    96.56000000    48.03000000
   H     94.92000000    98.08000000    47.26000000
   N     91.71000000    96.30000000    45.46000000
   C     90.40000000    96.77000000    45.04000000
   C     89.62000000    97.59000000    46.06000000
   O     88.60000000    98.17000000    45.70000000
   C     90.47000000    97.48000000    43.69000000
   C     91.46000000    96.86000000    42.72000000
   O     92.07000000    97.60000000    41.93000000
   O     91.69000000    95.63000000    42.62000000
   H     91.78000000    95.29000000    45.45000000
   H     89.87000000    95.85000000    44.84000000
   H     90.80000000    98.50000000    43.91000000
   H     89.50000000    97.53000000    43.20000000
   N     89.99000000    97.60000000    47.34000000
   C     89.21000000    98.19000000    48.41000000
   C     87.85000000    97.56000000    48.66000000
   O     87.71000000    96.34000000    48.65000000
   H     90.83000000    97.16000000    47.70000000
   H     89.13000000    99.25000000    48.17000000
   H     89.80000000    97.90000000    49.28000000
   N     86.81000000    98.37000000    48.90000000
   C     85.44000000    98.04000000    49.23000000
   C     85.26000000    96.90000000    50.21000000
   O     84.29000000    96.15000000    50.10000000
   C     84.71000000    97.87000000    47.90000000
   C     83.21000000    97.65000000    48.00000000
   N     82.61000000    96.75000000    47.22000000
   O     82.61000000    98.19000000    48.93000000
   H     87.11000000    99.32000000    49.07000000
   H     84.93000000    98.86000000    49.74000000
   H     85.22000000    97.06000000    47.37000000
   H     84.84000000    98.78000000    47.31000000
   H     83.11000000    96.22000000    46.52000000
   H     81.65000000    96.61000000    47.48000000
   N     86.07000000    96.92000000    51.28000000
   C     86.12000000    95.84000000    52.23000000
   C     86.60000000    94.48000000    51.74000000
   O     86.80000000    93.54000000    52.51000000
   H     86.68000000    97.71000000    51.36000000
   H     85.10000000    95.69000000    52.60000000
   H     86.70000000    96.16000000    53.10000000
   N     86.82000000    94.31000000    50.43000000
   C     87.34000000    93.12000000    49.79000000
   C     86.43000000    92.58000000    48.70000000
   O     85.74000000    93.34000000    48.02000000
   C     88.72000000    93.33000000    49.16000000
   C     89.65000000    93.87000000    50.25000000
   O     89.43000000    92.19000000    48.72000000
   H     86.69000000    95.11000000    49.83000000
   H     87.51000000    92.28000000    50.46000000
   H     88.61000000    93.94000000    48.27000000
   H     89.72000000    92.41000000    47.83000000
   H     90.67000000    93.82000000    49.88000000
   H     89.40000000    94.89000000    50.54000000
   H     89.59000000    93.28000000    51.16000000
   N     86.43000000    91.25000000    48.53000000
   C     85.77000000    90.69000000    47.37000000
   C     86.49000000    91.08000000    46.08000000
   O     87.57000000    91.66000000    46.08000000
   C     85.59000000    89.18000000    47.47000000
   C     86.90000000    88.44000000    47.72000000
   C     84.64000000    88.79000000    48.60000000
   C     86.98000000    87.12000000    46.96000000
   H     87.09000000    90.73000000    49.09000000
   H     84.75000000    91.07000000    47.38000000
   H     85.32000000    88.85000000    46.47000000
   H     87.09000000    88.23000000    48.77000000
   H     87.75000000    89.06000000    47.45000000
   H     83.74000000    89.40000000    48.63000000
   H     84.22000000    87.80000000    48.42000000
   H     85.13000000    88.89000000    49.57000000
   H     87.42000000    87.33000000    45.98000000
   H     87.65000000    86.46000000    47.52000000
   H     86.07000000    86.55000000    46.79000000
   N     85.80000000    90.88000000    44.96000000
   C     86.10000000    91.55000000    43.71000000
   C     84.83000000    92.01000000    43.01000000
   O     84.18000000    91.27000000    42.27000000
   C     86.98000000    90.68000000    42.82000000
   C     87.40000000    91.34000000    41.52000000
   O     87.16000000    92.57000000    41.40000000
   O     87.93000000    90.75000000    40.56000000
   H     84.97000000    90.31000000    44.91000000
   H     86.72000000    92.41000000    43.97000000
   H     86.47000000    89.76000000    42.53000000
   H     87.90000000    90.47000000    43.36000000
   N     84.41000000    93.24000000    43.27000000
   C     83.14000000    93.77000000    42.82000000
   C     82.28000000    94.43000000    43.89000000
   O     81.98000000    95.62000000    43.82000000
   C     83.24000000    94.47000000    41.46000000
   C     81.91000000    94.78000000    40.81000000
   C     81.39000000    96.08000000    40.87000000
   C     81.44000000    93.82000000    39.91000000
   C     80.23000000    96.34000000    40.14000000
   C     80.22000000    94.12000000    39.29000000
   C     79.59000000    95.37000000    39.36000000
   H     84.86000000    93.72000000    44.03000000
   H     82.56000000    92.88000000    42.56000000
   H     83.85000000    93.90000000    40.76000000
   H     83.89000000    95.34000000    41.55000000
   H     81.73000000    96.92000000    41.46000000
   H     81.89000000    92.86000000    39.71000000
   H     79.79000000    97.31000000    40.34000000
   H     79.78000000    93.44000000    38.58000000
   H     78.67000000    95.59000000    38.84000000
   N     81.83000000    93.67000000    44.90000000
   C     82.55000000    92.56000000    45.48000000
   C     82.29000000    91.23000000    44.77000000
   O     83.09000000    90.31000000    44.95000000
   C     82.11000000    92.55000000    46.94000000
   C     80.65000000    92.97000000    46.84000000
   C     80.68000000    94.00000000    45.72000000
   H     83.63000000    92.64000000    45.56000000
   H     82.14000000    91.60000000    47.49000000
   H     82.58000000    93.38000000    47.47000000
   H     80.06000000    92.14000000    46.46000000
   H     80.23000000    93.32000000    47.79000000
   H     79.78000000    93.88000000    45.12000000
   H     80.83000000    94.99000000    46.16000000
   N     81.23000000    91.04000000    43.99000000
   C     80.74000000    89.76000000    43.51000000
   C     80.60000000    88.58000000    44.46000000
   O     80.57000000    87.42000000    44.05000000
   C     81.46000000    89.47000000    42.21000000
   C     81.21000000    90.37000000    41.01000000
   C     79.82000000    90.26000000    40.39000000
   O     78.99000000    91.05000000    40.88000000
   O     79.48000000    89.35000000    39.61000000
   H     80.58000000    91.80000000    43.86000000
   H     79.72000000    89.97000000    43.17000000
   H     81.15000000    88.51000000    41.78000000
   H     82.53000000    89.45000000    42.43000000
   H     81.85000000    90.11000000    40.17000000
   H     81.42000000    91.41000000    41.27000000
   N     80.43000000    88.82000000    45.77000000
   C     80.39000000    87.69000000    46.68000000
   H     79.40100000    87.62400000    47.13300000
   H     80.59900000    86.77200000    46.13000000
   H     81.13900000    87.82500000    47.46100000
   H     80.14000000    89.73000000    46.09000000
  Ca     93.18000000    95.65000000    40.47000000
   O     93.62000000    97.98000000    39.27000000
   H     93.07000000    98.75000000    39.14000000
   H     94.47000000    98.21000000    38.89000000
   O     90.85000000    96.50000000    39.02000000
   H     90.79000000    97.12000000    38.30000000
   H     89.97000000    96.49000000    39.40000000
   O     95.30000000    96.58000000    42.02000000
   H     95.19000000    97.26000000    42.69000000
   H     96.03000000    96.06000000    42.33000000
   O     91.16000000    93.78000000    40.45000000
   H     90.40000000    94.05000000    40.97000000
   H     91.37000000    92.90000000    40.78000000
   O     95.66000000    95.72000000    39.28000000
   H     96.02000000    94.88000000    39.58000000
   H     96.36000000    96.35000000    39.43000000
   O     93.28000000    94.67000000    37.91000000
   H     93.42000000    95.10000000    37.06000000
   H     93.78000000    93.85000000    37.84000000

Ca 1.00



