%chk=loop3.apoCaM-CA-Ng.Init31.run14.water5.chk
%nprocshared=20
%mem=10GB
%nosave
#b3lyp/svp scf=(tight,noincore,xqc) Test 
#IOP(5/87=12) Density=Current Pop=(MK,readradii) iop(6/33=2) iop(6/42=6)

loop3.apoCaM-CA-Ng.Init31.run14.water5 

   0  1 
   C     99.37000000    90.85000000    15.43000000
   C     99.77000000    89.74000000    16.39000000
   O     99.13000000    89.40000000    17.38000000
   H     98.48900000    91.36300000    15.81600000
   H    100.19100000    91.56100000    15.33400000
   H     99.14200000    90.42200000    14.45400000
   N    100.81000000    89.02000000    15.97000000
   C    101.25000000    87.81000000    16.64000000
   C    102.02000000    88.30000000    17.87000000
   O    101.71000000    87.66000000    18.87000000
   C    102.08000000    86.89000000    15.75000000
   C    103.22000000    87.51000000    14.96000000
   O    104.05000000    86.68000000    14.52000000
   O    103.31000000    88.75000000    14.83000000
   H    101.33000000    89.43000000    15.20000000
   H    100.35000000    87.31000000    16.99000000
   H    101.41000000    86.53000000    14.96000000
   H    102.43000000    86.04000000    16.34000000
   N    102.75000000    89.41000000    17.85000000
   C    103.37000000    90.03000000    19.00000000
   C    104.50000000    89.11000000    19.45000000
   O    105.43000000    88.86000000    18.68000000
   C    103.76000000    91.48000000    18.77000000
   C    104.34000000    92.18000000    20.00000000
   C    104.68000000    93.65000000    19.78000000
   C    105.20000000    94.26000000    21.08000000
   N    105.43000000    95.69000000    20.83000000
   H    102.73000000    90.00000000    17.03000000
   H    102.62000000    90.08000000    19.79000000
   H    102.85000000    92.06000000    18.66000000
   H    104.43000000    91.57000000    17.91000000
   H    105.26000000    91.68000000    20.29000000
   H    103.60000000    92.12000000    20.80000000
   H    103.67000000    94.06000000    19.72000000
   H    105.36000000    93.77000000    18.94000000
   H    106.12000000    93.75000000    21.37000000
   H    104.37000000    94.13000000    21.77000000
   H    104.65000000    96.03000000    20.28000000
   H    105.37000000    96.23000000    21.68000000
   H    106.26000000    96.02000000    20.35000000
   N    104.54000000    88.53000000    20.66000000
   C    105.50000000    87.51000000    21.05000000
   C    105.07000000    86.13000000    20.57000000
   O    105.80000000    85.15000000    20.68000000
   C    105.69000000    87.40000000    22.56000000
   C    104.38000000    87.20000000    23.30000000
   O    104.40000000    87.20000000    24.55000000
   O    103.32000000    86.88000000    22.71000000
   H    103.68000000    88.60000000    21.18000000
   H    106.51000000    87.71000000    20.70000000
   H    106.10000000    88.31000000    22.99000000
   H    106.40000000    86.58000000    22.74000000
   N    103.95000000    86.02000000    19.85000000
   C    103.54000000    84.80000000    19.18000000
   C    104.45000000    84.30000000    18.07000000
   O    105.15000000    85.09000000    17.44000000
   H    103.29000000    86.77000000    19.74000000
   H    102.56000000    84.80000000    18.70000000
   H    103.47000000    84.02000000    19.94000000
   N    104.50000000    83.02000000    17.70000000
   C    103.42000000    82.07000000    17.90000000
   C    102.92000000    81.42000000    16.62000000
   O    103.39000000    80.36000000    16.22000000
   C    103.92000000    80.96000000    18.84000000
   C    104.29000000    81.38000000    20.25000000
   N    103.31000000    81.56000000    21.13000000
   O    105.45000000    81.52000000    20.63000000
   H    105.08000000    82.83000000    16.89000000
   H    102.58000000    82.48000000    18.45000000
   H    104.66000000    80.33000000    18.34000000
   H    103.12000000    80.25000000    19.05000000
   H    102.33000000    81.50000000    20.89000000
   H    103.53000000    81.77000000    22.10000000
   N    101.97000000    82.02000000    15.91000000
   C    101.33000000    83.31000000    16.09000000
   C    100.22000000    83.37000000    17.13000000
   O    100.08000000    84.30000000    17.92000000
   H    101.60000000    81.47000000    15.15000000
   H    100.83000000    83.55000000    15.15000000
   H    102.06000000    84.03000000    16.48000000
   N     99.47000000    82.28000000    17.35000000
   C     98.63000000    81.99000000    18.49000000
   C     99.45000000    81.71000000    19.75000000
   O    100.67000000    81.62000000    19.68000000
   C     97.89000000    80.69000000    18.18000000
   C     96.83000000    80.76000000    17.10000000
   C     96.28000000    81.95000000    16.63000000
   C     96.45000000    79.51000000    16.59000000
   C     95.40000000    81.87000000    15.54000000
   C     95.49000000    79.46000000    15.58000000
   C     94.99000000    80.64000000    14.99000000
   O     94.10000000    80.56000000    13.96000000
   H     99.78000000    81.53000000    16.76000000
   H     97.90000000    82.79000000    18.62000000
   H     97.36000000    80.43000000    19.09000000
   H     98.64000000    79.97000000    17.87000000
   H     96.57000000    82.90000000    17.06000000
   H     96.89000000    78.59000000    16.97000000
   H     95.00000000    82.74000000    15.05000000
   H     95.11000000    78.55000000    15.12000000
   H     94.08000000    79.67000000    13.59000000
   N     98.76000000    81.83000000    20.89000000
   C     99.36000000    82.25000000    22.14000000
   C     99.14000000    81.40000000    23.39000000
   O     99.87000000    81.54000000    24.37000000
   C     98.80000000    83.64000000    22.43000000
   C     99.40000000    84.68000000    21.49000000
   C     97.28000000    83.69000000    22.38000000
   C    100.92000000    84.82000000    21.42000000
   H     97.76000000    81.86000000    20.78000000
   H    100.43000000    82.32000000    21.95000000
   H     99.14000000    83.88000000    23.44000000
   H     99.02000000    85.62000000    21.88000000
   H     98.88000000    84.62000000    20.54000000
   H     96.97000000    84.65000000    22.81000000
   H     96.89000000    83.61000000    21.37000000
   H     96.96000000    82.93000000    23.10000000
   H    101.15000000    85.76000000    20.94000000
   H    101.39000000    84.83000000    22.40000000
   H    101.37000000    84.05000000    20.79000000
   N     98.16000000    80.50000000    23.38000000
   C     97.81000000    79.60000000    24.46000000
   C     96.67000000    80.20000000    25.26000000
   O     95.95000000    81.15000000    24.94000000
   C     97.33000000    78.21000000    24.05000000
   O     98.10000000    77.65000000    23.01000000
   H     97.63000000    80.33000000    22.53000000
   H     98.63000000    79.51000000    25.18000000
   H     96.31000000    78.18000000    23.67000000
   H     97.40000000    77.56000000    24.92000000
   H     97.56000000    77.01000000    22.54000000
   N     96.64000000    79.70000000    26.50000000
   C     95.64000000    80.01000000    27.50000000
   C     95.79000000    81.34000000    28.22000000
   O     96.90000000    81.86000000    28.32000000
   C     95.71000000    78.81000000    28.45000000
   H     97.19000000    78.88000000    26.73000000
   H     94.68000000    79.99000000    26.99000000
   H     96.55000000    78.81000000    29.14000000
   H     94.89000000    79.00000000    29.14000000
   H     95.64000000    77.85000000    27.95000000
   N     94.63000000    81.85000000    28.63000000
   C     94.48000000    83.06000000    29.41000000
   C     94.93000000    84.34000000    28.71000000
   O     95.65000000    85.18000000    29.25000000
   C     95.11000000    82.94000000    30.79000000
   H     93.87000000    81.19000000    28.64000000
   H     93.40000000    83.14000000    29.56000000
   H     94.73000000    83.81000000    31.34000000
   H     94.80000000    82.05000000    31.33000000
   H     96.19000000    82.92000000    30.66000000
   N     94.74000000    84.40000000    27.39000000
   C     95.23000000    85.46000000    26.53000000
   C     94.29000000    85.87000000    25.40000000
   O     94.25000000    87.05000000    25.05000000
   C     96.70000000    85.19000000    26.19000000
   C     97.30000000    86.42000000    25.51000000
   C     98.80000000    86.31000000    25.29000000
   O     99.25000000    86.69000000    24.19000000
   O     99.62000000    85.89000000    26.14000000
   H     94.27000000    83.60000000    27.00000000
   H     95.30000000    86.28000000    27.24000000
   H     96.74000000    84.35000000    25.50000000
   H     97.24000000    84.97000000    27.11000000
   H     97.13000000    87.32000000    26.11000000
   H     96.85000000    86.62000000    24.54000000
   N     93.48000000    84.94000000    24.91000000
   C     92.40000000    85.21000000    23.98000000
   H     91.57200000    85.67900000    24.51200000
   H     92.75400000    85.88000000    23.19600000
   H     92.06200000    84.27500000    23.53400000
   H     93.61000000    83.96000000    25.15000000
  Ca    101.68200000    87.38000000    24.85000000
   O    100.95200000    89.25000000    22.93000000
   H    100.46200000    88.79000000    22.25000000
   H    100.89200000    90.17000000    22.69000000
   O    102.77200000    86.64000000    27.04000000
   H    102.52200000    85.82000000    27.46000000
   H    103.44200000    87.01000000    27.61000000
   O    102.84200000    89.66000000    25.70000000
   H    103.28200000    90.24000000    25.09000000
   H    102.75200000    90.17000000    26.50000000
   O    100.14200000    88.98000000    26.22000000
   H    100.06200000    89.89000000    25.92000000
   H     99.33200000    88.82000000    26.71000000
   O    102.10200000    84.79000000    24.87000000
   H    101.97200000    84.56000000    25.79000000
   H    102.20200000    83.95000000    24.43000000

Ca 1.00



