%chk=loop4.apoCaM-CA-Ng.Init31.run18.water5.chk
%nprocshared=20
%mem=10GB
%nosave
#b3lyp/svp scf=(tight,noincore,xqc) Test 
#IOP(5/87=12) Density=Current Pop=(MK,readradii) iop(6/33=2) iop(6/42=6)

loop4.apoCaM-CA-Ng.Init31.run18.water5 

   -3  1 
   C     83.99000000    67.76000000    28.99000000
   C     85.08000000    68.30000000    29.91000000
   O     86.22000000    67.94000000    29.66000000
   H     83.14000000    68.44200000    28.99600000
   H     84.38000000    67.67400000    27.97600000
   H     83.67000000    66.77900000    29.34100000
   N     84.98000000    69.26000000    30.84000000
   C     83.83000000    69.84000000    31.48000000
   C     83.72000000    71.34000000    31.22000000
   O     82.85000000    72.07000000    31.69000000
   C     83.73000000    69.51000000    32.97000000
   C     83.59000000    68.02000000    33.24000000
   O     83.39000000    67.16000000    32.36000000
   O     83.83000000    67.60000000    34.40000000
   H     85.92000000    69.49000000    31.13000000
   H     82.89000000    69.49000000    31.04000000
   H     82.82000000    69.95000000    33.38000000
   H     84.58000000    69.95000000    33.49000000
   N     84.70000000    71.95000000    30.55000000
   C     84.77000000    73.37000000    30.29000000
   C     85.40000000    74.09000000    31.47000000
   O     84.84000000    75.12000000    31.83000000
   C     85.51000000    73.64000000    28.98000000
   C     85.54000000    75.13000000    28.65000000
   C     86.92000000    73.04000000    29.07000000
   C     85.73000000    75.37000000    27.15000000
   H     85.47000000    71.34000000    30.31000000
   H     83.81000000    73.83000000    30.07000000
   H     84.89000000    73.14000000    28.24000000
   H     86.29000000    75.62000000    29.26000000
   H     84.53000000    75.52000000    28.81000000
   H     87.49000000    73.46000000    29.89000000
   H     86.84000000    71.96000000    29.09000000
   H     87.52000000    73.29000000    28.20000000
   H     86.50000000    74.73000000    26.74000000
   H     84.84000000    75.08000000    26.59000000
   H     86.04000000    76.38000000    26.86000000
   N     86.44000000    73.59000000    32.15000000
   C     87.30000000    74.46000000    32.92000000
   C     87.96000000    73.55000000    33.95000000
   O     88.36000000    72.43000000    33.64000000
   C     88.37000000    75.14000000    32.07000000
   C     89.01000000    76.27000000    32.85000000
   O     90.25000000    76.12000000    32.87000000
   O     88.41000000    77.13000000    33.53000000
   H     86.66000000    72.60000000    32.07000000
   H     86.77000000    75.26000000    33.44000000
   H     87.91000000    75.57000000    31.18000000
   H     89.12000000    74.39000000    31.77000000
   N     88.06000000    74.00000000    35.20000000
   C     88.37000000    73.17000000    36.35000000
   C     89.75000000    72.52000000    36.27000000
   O     90.63000000    73.03000000    35.58000000
   H     87.84000000    74.98000000    35.33000000
   H     87.56000000    72.48000000    36.55000000
   H     88.47000000    73.76000000    37.26000000
   N     89.91000000    71.37000000    36.93000000
   C     91.14000000    70.60000000    36.99000000
   C     92.08000000    70.97000000    38.13000000
   O     91.63000000    71.55000000    39.11000000
   C     90.81000000    69.12000000    37.08000000
   C     89.77000000    68.80000000    38.15000000
   O     88.61000000    69.22000000    38.02000000
   O     90.15000000    68.04000000    39.08000000
   H     89.17000000    70.97000000    37.50000000
   H     91.72000000    70.73000000    36.08000000
   H     91.73000000    68.55000000    37.22000000
   H     90.38000000    68.84000000    36.12000000
   N     93.40000000    70.80000000    38.09000000
   C     94.28000000    70.54000000    36.97000000
   C     94.89000000    71.79000000    36.37000000
   O     94.73000000    72.88000000    36.92000000
   H     93.79000000    70.91000000    39.01000000
   H     93.72000000    70.04000000    36.18000000
   H     95.17000000    69.97000000    37.25000000
   N     95.76000000    71.71000000    35.35000000
   C     95.83000000    70.79000000    34.23000000
   C     94.62000000    70.65000000    33.32000000
   O     93.49000000    70.88000000    33.74000000
   C     96.48000000    69.46000000    34.61000000
   C     97.76000000    69.56000000    35.43000000
   C     98.42000000    68.19000000    35.58000000
   N     99.73000000    68.11000000    35.84000000
   O     97.87000000    67.14000000    35.28000000
   H     96.24000000    72.57000000    35.14000000
   H     96.53000000    71.23000000    33.52000000
   H     96.68000000    68.87000000    33.71000000
   H     95.71000000    68.97000000    35.20000000
   H     97.50000000    69.98000000    36.39000000
   H     98.52000000    70.21000000    34.99000000
   H    100.19000000    69.01000000    35.87000000
   H    100.20000000    67.25000000    35.59000000
   N     94.94000000    70.23000000    32.09000000
   C     94.04000000    70.02000000    30.98000000
   C     94.55000000    70.55000000    29.65000000
   O     95.74000000    70.70000000    29.40000000
   C     93.65000000    68.55000000    30.85000000
   C     92.97000000    68.13000000    32.15000000
   C     94.73000000    67.47000000    30.71000000
   H     95.92000000    70.06000000    31.93000000
   H     93.17000000    70.59000000    31.30000000
   H     93.00000000    68.48000000    29.98000000
   H     92.24000000    68.90000000    32.41000000
   H     92.40000000    67.22000000    31.96000000
   H     93.66000000    68.05000000    32.99000000
   H     95.29000000    67.62000000    29.78000000
   H     95.47000000    67.74000000    31.46000000
   H     94.33000000    66.47000000    30.86000000
   N     93.64000000    71.07000000    28.82000000
   C     93.88000000    71.57000000    27.48000000
   C     93.76000000    70.48000000    26.43000000
   O     94.78000000    70.02000000    25.94000000
   C     93.05000000    72.83000000    27.26000000
   C     93.60000000    73.98000000    28.10000000
   N     93.08000000    74.18000000    29.32000000
   O     94.59000000    74.60000000    27.75000000
   H     92.64000000    71.06000000    29.00000000
   H     94.92000000    71.89000000    27.48000000
   H     91.98000000    72.72000000    27.43000000
   H     93.19000000    73.21000000    26.25000000
   H     92.49000000    73.48000000    29.75000000
   H     93.56000000    74.89000000    29.86000000
   N     92.50000000    70.15000000    26.10000000
   C     92.05000000    69.26000000    25.06000000
   C     92.48000000    67.80000000    25.17000000
   O     93.60000000    67.46000000    25.54000000
   C     92.46000000    69.87000000    23.72000000
   C     91.86000000    69.30000000    22.46000000
   C     92.38000000    68.14000000    21.87000000
   C     90.81000000    70.00000000    21.85000000
   C     91.70000000    67.58000000    20.78000000
   C     90.17000000    69.52000000    20.71000000
   C     90.62000000    68.28000000    20.20000000
   O     90.04000000    67.69000000    19.11000000
   H     91.77000000    70.65000000    26.59000000
   H     90.96000000    69.24000000    25.04000000
   H     93.53000000    69.77000000    23.52000000
   H     92.34000000    70.95000000    23.80000000
   H     93.28000000    67.68000000    22.24000000
   H     90.45000000    70.89000000    22.34000000
   H     91.98000000    66.63000000    20.37000000
   H     89.41000000    70.14000000    20.26000000
   H     89.39000000    68.24000000    18.67000000
   N     91.57000000    66.89000000    24.80000000
   C     91.74000000    65.49000000    25.13000000
   C     90.39000000    64.93000000    25.54000000
   O     89.60000000    64.44000000    24.73000000
   C     92.49000000    64.80000000    23.99000000
   C     92.70000000    63.31000000    24.22000000
   C     93.69000000    62.66000000    23.26000000
   O     94.66000000    63.32000000    22.82000000
   O     93.47000000    61.48000000    22.93000000
   H     90.69000000    67.22000000    24.44000000
   H     92.30000000    65.26000000    26.04000000
   H     93.49000000    65.24000000    23.93000000
   H     91.95000000    64.91000000    23.05000000
   H     91.73000000    62.81000000    24.27000000
   H     93.05000000    63.07000000    25.22000000
   N     89.97000000    65.13000000    26.79000000
   C     88.63000000    64.85000000    27.26000000
   C     87.69000000    65.85000000    26.60000000
   O     86.65000000    65.52000000    26.03000000
   C     88.70000000    64.76000000    28.78000000
   C     87.32000000    64.74000000    29.44000000
   C     87.40000000    64.91000000    30.95000000
   O     88.40000000    65.39000000    31.53000000
   O     86.44000000    64.58000000    31.68000000
   H     90.63000000    65.59000000    27.41000000
   H     88.40000000    63.84000000    26.90000000
   H     89.07000000    65.73000000    29.11000000
   H     89.32000000    63.99000000    29.23000000
   H     86.82000000    63.80000000    29.22000000
   H     86.82000000    65.62000000    29.03000000
   N     88.04000000    67.14000000    26.66000000
   C     87.36000000    68.07000000    25.78000000
   H     86.44500000    68.42000000    26.25900000
   H     88.01100000    68.92000000    25.57600000
   H     87.11100000    67.57000000    24.84400000
   H     89.00000000    67.36000000    26.85000000
  Ca     84.55000000    65.09000000    33.61000000
   O     86.81000000    64.36000000    34.72000000
   H     87.53000000    64.94000000    34.95000000
   H     87.09000000    63.49000000    35.02000000
   O     86.48000000    66.98000000    33.00000000
   H     87.02000000    66.37000000    32.50000000
   H     87.04000000    67.74000000    33.14000000
   O     84.39000000    62.21000000    33.80000000
   H     85.06000000    61.72000000    33.32000000
   H     84.30000000    61.75000000    34.63000000
   O     82.21000000    64.92000000    34.91000000
   H     81.67000000    64.78000000    34.13000000
   H     81.70000000    65.52000000    35.45000000
   O     85.03000000    65.58000000    36.68000000
   H     85.02000000    65.51000000    37.64000000
   H     85.86000000    66.02000000    36.48000000

Ca 1.00



