%chk=loop4.apoCaM-CA-Ng.Init293.run35.water4.chk
%nprocshared=20
%mem=10GB
%nosave
#b3lyp/svp scf=(tight,noincore,xqc) Test 
#IOP(5/87=12) Density=Current Pop=(MK,readradii) iop(6/33=2) iop(6/42=6)

loop4.apoCaM-CA-Ng.Init293.run35.water4 

   -3  1 
   C     24.44000000    96.24000000    89.54000000
   C     24.98000000    96.71000000    88.19000000
   O     25.32000000    95.91000000    87.32000000
   H     23.42000000    95.87600000    89.41600000
   H     25.06800000    95.43600000    89.92300000
   H     24.44500000    97.07200000    90.24400000
   N     24.87000000    98.02000000    87.94000000
   C     25.36000000    98.72000000    86.77000000
   C     24.97000000    98.09000000    85.44000000
   O     25.80000000    97.53000000    84.74000000
   C     26.81000000    99.19000000    86.85000000
   C     27.76000000    98.12000000    87.37000000
   O     27.85000000    98.03000000    88.61000000
   O     28.35000000    97.38000000    86.55000000
   H     24.70000000    98.57000000    88.77000000
   H     24.78000000    99.65000000    86.81000000
   H     27.01000000   100.03000000    87.51000000
   H     27.12000000    99.62000000    85.90000000
   N     23.69000000    98.33000000    85.13000000
   C     22.98000000    97.85000000    83.96000000
   C     23.65000000    97.93000000    82.59000000
   O     23.53000000    97.06000000    81.73000000
   C     22.28000000    96.52000000    84.21000000
   C     21.22000000    96.69000000    85.29000000
   C     23.24000000    95.36000000    84.47000000
   C     20.12000000    97.70000000    84.96000000
   H     23.12000000    98.86000000    85.77000000
   H     22.18000000    98.59000000    83.91000000
   H     21.67000000    96.28000000    83.34000000
   H     21.73000000    96.94000000    86.23000000
   H     20.83000000    95.71000000    85.55000000
   H     23.82000000    95.18000000    83.56000000
   H     23.88000000    95.50000000    85.34000000
   H     22.64000000    94.46000000    84.58000000
   H     20.28000000    98.61000000    85.54000000
   H     20.18000000    98.05000000    83.93000000
   H     19.20000000    97.16000000    85.18000000
   N     24.35000000    99.06000000    82.45000000
   C     25.10000000    99.37000000    81.24000000
   C     26.31000000    98.46000000    81.11000000
   O     27.09000000    98.26000000    82.04000000
   C     25.43000000   100.85000000    81.20000000
   C     26.27000000   101.19000000    79.98000000
   O     27.43000000   101.66000000    80.08000000
   O     25.71000000   101.00000000    78.88000000
   H     24.49000000    99.65000000    83.26000000
   H     24.42000000    99.21000000    80.40000000
   H     25.88000000   101.18000000    82.14000000
   H     24.58000000   101.54000000    81.23000000
   N     26.59000000    97.93000000    79.92000000
   C     25.70000000    97.64000000    78.81000000
   C     26.31000000    96.82000000    77.68000000
   O     27.50000000    96.50000000    77.74000000
   H     27.52000000    97.54000000    79.83000000
   H     25.37000000    98.57000000    78.34000000
   H     24.84000000    97.09000000    79.20000000
   N     25.53000000    96.36000000    76.70000000
   C     24.11000000    96.41000000    76.41000000
   C     23.21000000    95.86000000    77.51000000
   O     22.30000000    96.58000000    77.93000000
   C     23.96000000    95.94000000    74.97000000
   C     22.52000000    95.71000000    74.55000000
   O     22.26000000    94.55000000    74.16000000
   O     21.69000000    96.63000000    74.72000000
   H     26.07000000    95.79000000    76.06000000
   H     23.78000000    97.45000000    76.33000000
   H     24.52000000    95.00000000    74.96000000
   H     24.43000000    96.63000000    74.27000000
   N     23.25000000    94.57000000    77.82000000
   C     24.22000000    93.51000000    77.62000000
   C     23.65000000    92.10000000    77.72000000
   O     22.53000000    91.84000000    78.16000000
   H     22.41000000    94.24000000    78.27000000
   H     24.95000000    93.49000000    78.44000000
   H     24.73000000    93.59000000    76.66000000
   N     24.42000000    91.18000000    77.14000000
   C     24.07000000    89.77000000    77.12000000
   C     24.59000000    88.91000000    78.26000000
   O     24.37000000    87.70000000    78.19000000
   C     24.53000000    89.18000000    75.79000000
   C     23.70000000    89.54000000    74.56000000
   C     23.94000000    90.99000000    74.19000000
   N     22.96000000    91.88000000    74.01000000
   O     25.04000000    91.54000000    74.07000000
   H     25.37000000    91.45000000    76.93000000
   H     23.00000000    89.68000000    77.30000000
   H     24.36000000    88.11000000    75.86000000
   H     25.58000000    89.34000000    75.56000000
   H     22.62000000    89.54000000    74.66000000
   H     24.08000000    89.03000000    73.67000000
   H     22.02000000    91.60000000    74.22000000
   H     23.19000000    92.81000000    73.69000000
   N     25.19000000    89.48000000    79.31000000
   C     25.63000000    88.74000000    80.47000000
   C     27.05000000    89.12000000    80.87000000
   O     27.37000000    90.30000000    80.88000000
   C     24.64000000    88.64000000    81.63000000
   C     24.45000000    87.24000000    82.21000000
   C     23.26000000    89.21000000    81.29000000
   H     25.34000000    90.48000000    79.34000000
   H     25.76000000    87.69000000    80.21000000
   H     25.07000000    89.26000000    82.41000000
   H     25.31000000    87.07000000    82.85000000
   H     23.56000000    87.20000000    82.83000000
   H     24.45000000    86.56000000    81.36000000
   H     22.64000000    89.17000000    82.19000000
   H     23.30000000    90.25000000    80.98000000
   H     22.78000000    88.57000000    80.56000000
   N     27.93000000    88.13000000    81.08000000
   C     29.25000000    88.44000000    81.57000000
   C     30.19000000    89.02000000    80.53000000
   O     31.21000000    89.63000000    80.86000000
   C     29.89000000    87.23000000    82.25000000
   C     29.05000000    86.70000000    83.40000000
   N     28.06000000    85.84000000    83.14000000
   O     29.21000000    87.09000000    84.55000000
   H     27.53000000    87.21000000    81.15000000
   H     29.16000000    89.16000000    82.39000000
   H     30.90000000    87.44000000    82.60000000
   H     29.90000000    86.38000000    81.56000000
   H     27.93000000    85.57000000    82.17000000
   H     27.76000000    85.16000000    83.83000000
   N     29.96000000    88.75000000    79.24000000
   C     30.95000000    89.09000000    78.24000000
   C     31.28000000    90.57000000    78.19000000
   O     30.39000000    91.40000000    77.98000000
   C     30.44000000    88.55000000    76.91000000
   C     30.33000000    87.05000000    76.72000000
   C     31.34000000    86.38000000    76.01000000
   C     29.26000000    86.26000000    77.15000000
   C     31.29000000    85.00000000    75.81000000
   C     29.13000000    84.89000000    76.89000000
   C     30.21000000    84.22000000    76.27000000
   O     30.18000000    82.88000000    76.04000000
   H     29.23000000    88.06000000    79.12000000
   H     31.84000000    88.51000000    78.50000000
   H     31.08000000    88.93000000    76.11000000
   H     29.49000000    89.03000000    76.68000000
   H     32.17000000    86.94000000    75.61000000
   H     28.45000000    86.70000000    77.72000000
   H     32.09000000    84.52000000    75.26000000
   H     28.19000000    84.42000000    77.12000000
   H     29.35000000    82.55000000    76.37000000
   N     32.55000000    90.99000000    78.21000000
   C     32.99000000    92.37000000    78.35000000
   C     32.47000000    93.19000000    79.52000000
   O     32.70000000    94.40000000    79.51000000
   C     33.01000000    93.13000000    77.03000000
   C     33.67000000    92.44000000    75.84000000
   C     33.39000000    93.22000000    74.56000000
   O     32.21000000    93.36000000    74.19000000
   O     34.38000000    93.76000000    74.02000000
   H     33.24000000    90.28000000    78.06000000
   H     34.03000000    92.25000000    78.67000000
   H     33.33000000    94.17000000    77.06000000
   H     31.98000000    93.35000000    76.76000000
   H     33.26000000    91.43000000    75.85000000
   H     34.76000000    92.44000000    75.90000000
   N     31.76000000    92.57000000    80.47000000
   C     31.24000000    93.14000000    81.69000000
   C     31.92000000    92.59000000    82.94000000
   O     31.46000000    92.74000000    84.07000000
   C     29.73000000    92.93000000    81.65000000
   C     29.02000000    93.93000000    80.74000000
   C     28.77000000    95.25000000    81.46000000
   O     27.65000000    95.44000000    81.98000000
   O     29.62000000    96.15000000    81.63000000
   H     31.56000000    91.61000000    80.22000000
   H     31.39000000    94.21000000    81.72000000
   H     29.38000000    93.17000000    82.65000000
   H     29.45000000    91.90000000    81.46000000
   H     28.07000000    93.52000000    80.41000000
   H     29.63000000    94.05000000    79.84000000
   N     33.04000000    91.89000000    82.76000000
   C     33.89000000    91.37000000    83.82000000
   H     34.78300000    91.98900000    83.90500000
   H     33.34600000    91.38700000    84.76400000
   H     34.17900000    90.34600000    83.58500000
   H     33.39000000    91.81000000    81.82000000
  Ca     28.33000000    96.92000000    84.00000000
   O     30.85000000    97.41000000    84.33000000
   H     31.42000000    96.65000000    84.25000000
   H     31.03000000    97.76000000    85.20000000
   O     28.89000000    99.62000000    83.70000000
   H     28.88000000   100.06000000    82.85000000
   H     29.66000000    99.98000000    84.15000000
   O     29.79000000    94.83000000    85.07000000
   H     29.89000000    94.44000000    85.94000000
   H     30.48000000    94.41000000    84.54000000
   O     27.00000000    94.92000000    85.26000000
   H     26.30000000    95.51000000    85.52000000
   H     26.68000000    94.05000000    85.50000000

Ca 1.00



