%chk=loop4.holoCaM.run59.water2.chk
%nprocshared=20
%mem=10GB
%nosave
#b3lyp/svp scf=(tight,noincore,xqc) Test 
#IOP(5/87=12) Density=Current Pop=(MK,readradii) iop(6/33=2) iop(6/42=6)

loop4.holoCaM.run59.water2 

   -3  1 
   C     82.91000000    68.60000000     4.30000000
   C     82.24000000    69.96000000     4.39000000
   O     81.89000000    70.56000000     3.38000000
   H     83.87300000    68.63600000     4.81000000
   H     82.27600000    67.85000000     4.77300000
   H     83.06300000    68.33800000     3.25300000
   N     82.15000000    70.38000000     5.66000000
   C     81.65000000    71.70000000     5.97000000
   C     82.66000000    72.74000000     5.51000000
   O     83.85000000    72.65000000     5.77000000
   C     81.37000000    71.86000000     7.46000000
   C     81.06000000    73.29000000     7.87000000
   O     81.53000000    73.67000000     8.96000000
   O     80.40000000    73.97000000     7.05000000
   H     82.59000000    69.80000000     6.37000000
   H     80.75000000    71.83000000     5.37000000
   H     82.28000000    71.63000000     8.02000000
   H     80.58000000    71.19000000     7.81000000
   N     82.15000000    73.78000000     4.85000000
   C     82.96000000    74.90000000     4.41000000
   C     82.94000000    76.20000000     5.20000000
   O     83.83000000    77.04000000     5.11000000
   C     82.80000000    75.20000000     2.92000000
   C     81.58000000    76.00000000     2.47000000
   C     83.02000000    73.99000000     2.02000000
   C     81.36000000    76.45000000     1.03000000
   H     81.15000000    73.81000000     4.73000000
   H     83.96000000    74.47000000     4.44000000
   H     83.59000000    75.91000000     2.68000000
   H     81.46000000    76.97000000     2.96000000
   H     80.71000000    75.44000000     2.82000000
   H     83.04000000    74.19000000     0.95000000
   H     83.91000000    73.41000000     2.26000000
   H     82.12000000    73.37000000     2.11000000
   H     81.35000000    75.63000000     0.31000000
   H     80.48000000    77.09000000     1.01000000
   H     82.21000000    77.08000000     0.76000000
   N     81.99000000    76.36000000     6.12000000
   C     81.69000000    77.61000000     6.80000000
   C     81.33000000    77.61000000     8.28000000
   O     80.37000000    78.25000000     8.71000000
   C     80.75000000    78.49000000     5.98000000
   C     79.32000000    77.97000000     5.93000000
   O     79.07000000    76.75000000     6.01000000
   O     78.42000000    78.82000000     5.77000000
   H     81.34000000    75.60000000     6.26000000
   H     82.57000000    78.25000000     6.72000000
   H     81.17000000    78.55000000     4.97000000
   H     80.78000000    79.49000000     6.42000000
   N     82.03000000    76.80000000     9.07000000
   C     82.13000000    76.97000000    10.51000000
   C     80.98000000    76.51000000    11.40000000
   O     81.04000000    76.81000000    12.59000000
   H     82.63000000    76.13000000     8.60000000
   H     82.36000000    78.01000000    10.74000000
   H     83.00000000    76.40000000    10.83000000
   N     80.08000000    75.69000000    10.86000000
   C     78.89000000    75.22000000    11.54000000
   C     78.86000000    73.71000000    11.73000000
   O     77.95000000    73.21000000    12.40000000
   C     77.63000000    75.66000000    10.81000000
   C     77.55000000    75.20000000     9.36000000
   O     76.78000000    75.90000000     8.68000000
   O     78.12000000    74.16000000     8.97000000
   H     80.23000000    75.52000000     9.87000000
   H     78.83000000    75.62000000    12.55000000
   H     77.51000000    76.74000000    10.79000000
   H     76.74000000    75.26000000    11.29000000
   N     79.82000000    72.97000000    11.18000000
   C     80.09000000    71.55000000    11.29000000
   C     79.03000000    70.77000000    10.53000000
   O     78.99000000    69.56000000    10.75000000
   H     80.52000000    73.50000000    10.67000000
   H     80.20000000    71.24000000    12.32000000
   H     81.01000000    71.32000000    10.73000000
   N     78.28000000    71.32000000     9.58000000
   C     77.15000000    70.66000000     8.95000000
   C     77.18000000    70.99000000     7.46000000
   O     77.94000000    71.87000000     7.05000000
   C     75.88000000    71.18000000     9.62000000
   C     75.59000000    70.44000000    10.92000000
   C     74.35000000    71.10000000    11.51000000
   N     74.40000000    71.92000000    12.56000000
   O     73.26000000    70.91000000    10.98000000
   H     78.46000000    72.30000000     9.40000000
   H     77.21000000    69.58000000     9.08000000
   H     75.02000000    70.99000000     8.99000000
   H     75.94000000    72.25000000     9.82000000
   H     76.39000000    70.64000000    11.64000000
   H     75.55000000    69.37000000    10.72000000
   H     75.27000000    72.09000000    13.04000000
   H     73.50000000    72.35000000    12.69000000
   N     76.42000000    70.28000000     6.62000000
   C     76.42000000    70.38000000     5.18000000
   C     75.06000000    70.63000000     4.56000000
   O     74.05000000    69.97000000     4.79000000
   C     77.19000000    69.25000000     4.49000000
   C     78.59000000    69.28000000     5.10000000
   C     76.63000000    67.83000000     4.62000000
   H     75.71000000    69.69000000     7.04000000
   H     77.08000000    71.23000000     5.03000000
   H     77.26000000    69.52000000     3.44000000
   H     79.23000000    68.66000000     4.47000000
   H     79.09000000    70.24000000     4.93000000
   H     78.58000000    68.90000000     6.12000000
   H     75.76000000    67.74000000     3.97000000
   H     77.34000000    67.20000000     4.09000000
   H     76.56000000    67.42000000     5.63000000
   N     75.03000000    71.72000000     3.79000000
   C     73.89000000    72.12000000     2.99000000
   C     74.10000000    71.52000000     1.61000000
   O     75.07000000    70.80000000     1.38000000
   C     73.79000000    73.64000000     3.08000000
   C     74.51000000    74.38000000     1.97000000
   N     75.80000000    74.71000000     2.05000000
   O     73.98000000    74.68000000     0.90000000
   H     75.88000000    72.27000000     3.69000000
   H     73.00000000    71.60000000     3.34000000
   H     74.03000000    74.02000000     4.07000000
   H     72.78000000    74.00000000     2.86000000
   H     76.24000000    74.66000000     2.96000000
   H     76.10000000    75.28000000     1.27000000
   N     73.11000000    71.80000000     0.76000000
   C     73.08000000    71.26000000    -0.58000000
   C     74.40000000    71.37000000    -1.33000000
   O     74.84000000    70.36000000    -1.89000000
   C     71.95000000    71.83000000    -1.43000000
   C     71.96000000    71.41000000    -2.88000000
   C     71.55000000    70.10000000    -3.17000000
   C     72.41000000    72.32000000    -3.85000000
   C     71.60000000    69.65000000    -4.50000000
   C     72.49000000    71.86000000    -5.17000000
   C     72.03000000    70.56000000    -5.49000000
   O     72.03000000    70.20000000    -6.80000000
   H     72.37000000    72.46000000     0.97000000
   H     72.84000000    70.20000000    -0.50000000
   H     72.18000000    72.89000000    -1.42000000
   H     70.98000000    71.66000000    -0.97000000
   H     71.42000000    69.43000000    -2.34000000
   H     72.72000000    73.31000000    -3.58000000
   H     71.34000000    68.63000000    -4.74000000
   H     72.84000000    72.54000000    -5.93000000
   H     72.17000000    70.97000000    -7.36000000
   N     74.99000000    72.57000000    -1.39000000
   C     76.11000000    72.82000000    -2.28000000
   C     77.39000000    72.13000000    -1.84000000
   O     78.27000000    71.79000000    -2.62000000
   C     76.18000000    74.33000000    -2.48000000
   C     76.90000000    74.74000000    -3.76000000
   C     76.95000000    76.26000000    -3.83000000
   O     78.01000000    76.89000000    -3.63000000
   O     75.89000000    76.89000000    -4.04000000
   H     74.53000000    73.35000000    -0.95000000
   H     75.84000000    72.51000000    -3.29000000
   H     76.59000000    74.80000000    -1.58000000
   H     75.16000000    74.73000000    -2.53000000
   H     76.47000000    74.28000000    -4.65000000
   H     77.93000000    74.39000000    -3.77000000
   N     77.51000000    72.03000000    -0.51000000
   C     78.56000000    71.26000000     0.12000000
   C     78.30000000    69.76000000     0.00000000
   O     79.20000000    68.99000000    -0.35000000
   C     78.49000000    71.53000000     1.62000000
   C     78.97000000    72.93000000     2.02000000
   C     78.58000000    73.31000000     3.44000000
   O     77.41000000    73.27000000     3.90000000
   O     79.47000000    73.71000000     4.21000000
   H     76.88000000    72.62000000     0.01000000
   H     79.54000000    71.49000000    -0.30000000
   H     79.08000000    70.87000000     2.26000000
   H     77.51000000    71.39000000     2.08000000
   H     78.48000000    73.62000000     1.33000000
   H     80.02000000    73.00000000     1.76000000
   N     77.07000000    69.26000000    -0.01000000
   C     76.67000000    67.87000000    -0.08000000
   H     75.71800000    67.79200000    -0.60600000
   H     77.42800000    67.30000000    -0.61600000
   H     76.56100000    67.47200000     0.92900000
   H     76.34000000    69.95000000     0.03000000
  Ca     77.93000000    74.37000000     6.23000000
   O     75.46000000    74.13000000     7.23000000
   H     75.71000000    74.71000000     7.94000000
   H     74.56000000    73.87000000     7.42000000
   O     76.58000000    76.25000000     4.91000000
   H     75.93000000    76.96000000     4.93000000
   H     77.42000000    76.70000000     4.91000000

Ca 1.00



