%chk=loop1.apoCaM-CA-Ng.Init293.run87.water4.chk
%nprocshared=20
%mem=10GB
%nosave
#b3lyp/svp scf=(tight,noincore,xqc) Test 
#IOP(5/87=12) Density=Current Pop=(MK,readradii) iop(6/33=2) iop(6/42=6)

loop1.apoCaM-CA-Ng.Init293.run87.water4 

   0  1 
   C     67.38000000   117.88000000    27.14000000
   C     67.47000000   119.40000000    27.22000000
   O     67.62000000   120.08000000    26.22000000
   H     66.49200000   117.59800000    26.57400000
   H     68.26700000   117.48900000    26.64200000
   H     67.31500000   117.46600000    28.14600000
   N     67.49000000   119.88000000    28.47000000
   C     67.51000000   121.31000000    28.70000000
   C     68.90000000   121.90000000    28.80000000
   O     69.07000000   123.12000000    28.68000000
   C     66.67000000   121.64000000    29.93000000
   C     67.23000000   121.02000000    31.20000000
   O     67.20000000   119.77000000    31.29000000
   O     67.81000000   121.75000000    32.03000000
   H     67.40000000   119.35000000    29.32000000
   H     66.93000000   121.80000000    27.92000000
   H     65.67000000   121.29000000    29.70000000
   H     66.52000000   122.71000000    30.10000000
   N     69.92000000   121.06000000    28.99000000
   C     71.31000000   121.47000000    29.03000000
   C     71.73000000   122.05000000    27.69000000
   O     71.49000000   121.46000000    26.64000000
   C     72.19000000   120.26000000    29.30000000
   C     71.92000000   119.69000000    30.70000000
   C     72.95000000   118.64000000    31.09000000
   C     72.39000000   117.76000000    32.20000000
   N     73.34000000   116.84000000    32.85000000
   H     69.71000000   120.07000000    29.04000000
   H     71.40000000   122.14000000    29.89000000
   H     73.21000000   120.62000000    29.33000000
   H     72.01000000   119.47000000    28.57000000
   H     70.92000000   119.27000000    30.76000000
   H     71.99000000   120.56000000    31.35000000
   H     73.87000000   119.15000000    31.40000000
   H     73.19000000   118.04000000    30.21000000
   H     71.51000000   117.19000000    31.89000000
   H     71.92000000   118.36000000    32.98000000
   H     73.28000000   116.82000000    33.85000000
   H     73.23000000   115.88000000    32.54000000
   H     74.28000000   117.19000000    32.68000000
   N     72.15000000   123.32000000    27.61000000
   C     72.17000000   124.32000000    28.66000000
   C     72.05000000   125.73000000    28.10000000
   O     72.65000000   126.66000000    28.65000000
   C     73.40000000   124.10000000    29.54000000
   C     74.72000000   123.83000000    28.82000000
   O     75.22000000   122.69000000    28.89000000
   O     75.22000000   124.67000000    28.05000000
   H     72.37000000   123.68000000    26.69000000
   H     71.29000000   124.13000000    29.27000000
   H     73.30000000   123.20000000    30.14000000
   H     73.49000000   124.97000000    30.19000000
   N     71.30000000   126.08000000    27.06000000
   C     70.27000000   125.35000000    26.34000000
   C     69.29000000   126.12000000    25.46000000
   O     69.41000000   127.34000000    25.43000000
   H     71.39000000   127.05000000    26.79000000
   H     69.67000000   124.87000000    27.11000000
   H     70.72000000   124.57000000    25.73000000
   N     68.40000000   125.45000000    24.73000000
   C     68.08000000   124.05000000    24.95000000
   C     66.57000000   123.92000000    25.07000000
   O     65.86000000   124.87000000    24.76000000
   C     68.57000000   123.05000000    23.91000000
   C     70.01000000   123.18000000    23.45000000
   O     70.90000000   122.62000000    24.13000000
   O     70.23000000   124.00000000    22.54000000
   H     67.76000000   126.03000000    24.20000000
   H     68.50000000   123.68000000    25.88000000
   H     67.94000000   123.07000000    23.02000000
   H     68.35000000   122.05000000    24.28000000
   N     66.12000000   122.76000000    25.57000000
   C     64.75000000   122.29000000    25.57000000
   C     64.46000000   121.70000000    24.20000000
   O     63.28000000   121.50000000    23.92000000
   H     66.86000000   122.16000000    25.91000000
   H     64.03000000   123.06000000    25.84000000
   H     64.56000000   121.48000000    26.28000000
   N     65.42000000   121.45000000    23.30000000
   C     65.21000000   120.93000000    21.96000000
   C     66.36000000   119.94000000    21.79000000
   O     67.46000000   120.11000000    22.30000000
   C     65.30000000   122.03000000    20.91000000
   C     64.47000000   123.31000000    21.05000000
   O     65.02000000   121.40000000    19.69000000
   H     66.38000000   121.61000000    23.55000000
   H     64.21000000   120.50000000    21.91000000
   H     66.32000000   122.41000000    20.92000000
   H     65.25000000   121.87000000    18.88000000
   H     64.82000000   123.97000000    21.84000000
   H     64.54000000   123.94000000    20.16000000
   H     63.43000000   123.07000000    21.27000000
   N     66.19000000   118.88000000    20.99000000
   C     67.07000000   117.78000000    20.66000000
   C     67.13000000   117.54000000    19.15000000
   O     66.17000000   117.18000000    18.47000000
   C     66.73000000   116.60000000    21.56000000
   C     67.59000000   115.35000000    21.40000000
   C     65.30000000   116.19000000    21.24000000
   C     69.03000000   115.32000000    21.90000000
   H     65.27000000   118.75000000    20.59000000
   H     68.07000000   118.06000000    21.00000000
   H     66.69000000   116.95000000    22.59000000
   H     67.61000000   115.03000000    20.36000000
   H     67.03000000   114.58000000    21.93000000
   H     64.63000000   117.06000000    21.27000000
   H     65.20000000   115.77000000    20.24000000
   H     65.07000000   115.37000000    21.92000000
   H     69.64000000   116.10000000    21.45000000
   H     68.92000000   115.45000000    22.98000000
   H     69.51000000   114.35000000    21.77000000
   N     68.28000000   117.80000000    18.54000000
   C     68.66000000   117.60000000    17.16000000
   C     69.91000000   116.76000000    16.95000000
   O     70.25000000   116.38000000    15.83000000
   C     68.62000000   118.86000000    16.30000000
   C     69.92000000   119.65000000    16.41000000
   O     67.49000000   119.65000000    16.60000000
   H     69.01000000   118.23000000    19.10000000
   H     67.84000000   117.00000000    16.77000000
   H     68.52000000   118.60000000    15.24000000
   H     66.77000000   119.03000000    16.71000000
   H     70.73000000   119.10000000    15.93000000
   H     69.81000000   120.50000000    15.74000000
   H     70.10000000   119.95000000    17.44000000
   N     70.64000000   116.41000000    18.01000000
   C     71.91000000   115.70000000    18.08000000
   C     73.05000000   116.55000000    17.53000000
   O     72.78000000   117.62000000    17.00000000
   C     71.95000000   114.27000000    17.54000000
   C     70.71000000   113.46000000    17.92000000
   O     73.07000000   113.56000000    18.02000000
   H     70.36000000   116.83000000    18.88000000
   H     72.16000000   115.54000000    19.13000000
   H     72.17000000   114.33000000    16.48000000
   H     73.10000000   112.76000000    17.50000000
   H     69.91000000   113.70000000    17.22000000
   H     70.99000000   112.40000000    17.91000000
   H     70.42000000   113.66000000    18.95000000
   N     74.30000000   116.12000000    17.69000000
   C     75.42000000   116.57000000    16.89000000
   C     76.50000000   117.34000000    17.64000000
   O     77.16000000   118.21000000    17.08000000
   C     76.03000000   115.48000000    16.02000000
   C     75.33000000   115.17000000    14.70000000
   C     76.11000000   114.24000000    13.77000000
   C     75.29000000   113.75000000    12.58000000
   N     75.83000000   112.52000000    11.98000000
   H     74.32000000   115.21000000    18.13000000
   H     75.13000000   117.34000000    16.17000000
   H     76.14000000   114.61000000    16.65000000
   H     77.02000000   115.83000000    15.72000000
   H     75.26000000   116.13000000    14.17000000
   H     74.41000000   114.64000000    14.93000000
   H     76.39000000   113.37000000    14.35000000
   H     76.98000000   114.83000000    13.46000000
   H     75.27000000   114.56000000    11.84000000
   H     74.28000000   113.56000000    12.94000000
   H     75.10000000   112.16000000    11.38000000
   H     76.60000000   112.70000000    11.35000000
   H     76.04000000   111.82000000    12.67000000
   N     76.83000000   117.19000000    18.93000000
   C     76.15000000   116.57000000    20.05000000
   C     75.88000000   115.08000000    19.94000000
   O     74.82000000   114.59000000    20.31000000
   C     74.97000000   117.42000000    20.49000000
   C     74.81000000   117.28000000    22.00000000
   C     73.97000000   118.40000000    22.60000000
   O     74.38000000   119.14000000    23.52000000
   O     72.75000000   118.52000000    22.37000000
   H     77.69000000   117.67000000    19.15000000
   H     76.89000000   116.58000000    20.85000000
   H     74.04000000   117.17000000    19.98000000
   H     75.15000000   118.47000000    20.23000000
   H     75.78000000   117.21000000    22.48000000
   H     74.32000000   116.32000000    22.15000000
   N     76.90000000   114.28000000    19.61000000
   C     76.88000000   112.83000000    19.63000000
   H     75.96100000   112.47300000    19.16400000
   H     77.73800000   112.44700000    19.07900000
   H     76.92400000   112.48000000    20.66100000
   H     77.78000000   114.73000000    19.41000000
  Ca     72.20000000   120.36500000    24.09000000
   O     73.10000000   121.52500000    21.83000000
   H     73.43000000   121.00500000    21.09000000
   H     73.41000000   122.41500000    21.65000000
   O     74.30000000   121.74500000    25.11000000
   H     74.09000000   122.66500000    25.25000000
   H     75.05000000   121.56500000    25.67000000
   O     69.60000000   119.95500000    24.42000000
   H     68.97000000   119.73500000    23.73000000
   H     69.06000000   120.27500000    25.14000000
   O     72.09000000   118.47500000    25.91000000
   H     71.43000000   118.21500000    26.54000000
   H     72.87000000   118.65500000    26.44000000

Ca 1.00



