%chk=loop3.apoCaM-CA-Ng.Init31.run51.water6.chk
%nprocshared=20
%mem=10GB
%nosave
#b3lyp/svp scf=(tight,noincore,xqc) Test 
#IOP(5/87=12) Density=Current Pop=(MK,readradii) iop(6/33=2) iop(6/42=6)

loop3.apoCaM-CA-Ng.Init31.run51.water6 

   0  1 
   C    119.67000000    54.97000000    27.10000000
   C    119.61000000    56.47000000    27.30000000
   O    118.93000000    57.27000000    26.66000000
   H    120.64400000    54.60000000    27.42100000
   H    118.88800000    54.49300000    27.69000000
   H    119.52300000    54.73700000    26.04500000
   N    120.30000000    56.93000000    28.36000000
   C    120.46000000    58.31000000    28.75000000
   C    121.49000000    58.99000000    27.86000000
   O    122.28000000    58.34000000    27.18000000
   C    120.78000000    58.29000000    30.24000000
   C    121.91000000    57.31000000    30.54000000
   O    123.10000000    57.71000000    30.54000000
   O    121.62000000    56.14000000    30.85000000
   H    120.98000000    56.39000000    28.87000000
   H    119.53000000    58.89000000    28.72000000
   H    119.89000000    58.08000000    30.83000000
   H    121.16000000    59.26000000    30.55000000
   N    121.45000000    60.32000000    28.01000000
   C    122.49000000    61.08000000    27.36000000
   C    122.44000000    61.19000000    25.84000000
   O    123.47000000    61.52000000    25.25000000
   C    122.41000000    62.45000000    28.02000000
   C    122.79000000    62.52000000    29.49000000
   C    122.92000000    63.94000000    30.04000000
   C    124.17000000    64.65000000    29.54000000
   N    124.36000000    65.93000000    30.24000000
   H    120.96000000    60.77000000    28.78000000
   H    123.45000000    60.57000000    27.48000000
   H    121.39000000    62.82000000    27.92000000
   H    123.10000000    63.10000000    27.47000000
   H    123.77000000    62.05000000    29.61000000
   H    122.13000000    61.92000000    30.12000000
   H    123.03000000    63.86000000    31.12000000
   H    122.08000000    64.58000000    29.76000000
   H    124.10000000    64.88000000    28.48000000
   H    124.99000000    64.02000000    29.87000000
   H    123.52000000    66.49000000    30.16000000
   H    124.56000000    65.85000000    31.22000000
   H    125.09000000    66.43000000    29.76000000
   N    121.31000000    60.90000000    25.20000000
   C    121.18000000    61.05000000    23.76000000
   C    119.88000000    61.81000000    23.53000000
   O    119.11000000    61.50000000    22.62000000
   C    121.34000000    59.66000000    23.15000000
   C    120.37000000    58.62000000    23.67000000
   O    120.53000000    57.44000000    23.30000000
   O    119.43000000    59.03000000    24.38000000
   H    120.50000000    60.47000000    25.62000000
   H    121.96000000    61.71000000    23.40000000
   H    122.37000000    59.33000000    23.27000000
   H    121.13000000    59.82000000    22.09000000
   N    119.62000000    62.79000000    24.40000000
   C    118.27000000    63.21000000    24.70000000
   C    117.46000000    62.26000000    25.57000000
   O    117.97000000    61.18000000    25.87000000
   H    120.30000000    62.94000000    25.13000000
   H    117.69000000    63.52000000    23.83000000
   H    118.46000000    64.15000000    25.23000000
   N    116.20000000    62.51000000    25.95000000
   C    115.37000000    63.56000000    25.39000000
   C    113.95000000    63.13000000    25.06000000
   O    113.29000000    62.53000000    25.91000000
   C    115.48000000    64.70000000    26.40000000
   C    114.53000000    65.86000000    26.11000000
   N    114.89000000    66.88000000    25.32000000
   O    113.40000000    65.82000000    26.58000000
   H    115.75000000    61.78000000    26.47000000
   H    115.79000000    63.91000000    24.45000000
   H    116.49000000    65.11000000    26.36000000
   H    115.21000000    64.45000000    27.42000000
   H    115.75000000    66.74000000    24.82000000
   H    114.61000000    67.83000000    25.53000000
   N    113.26000000    63.44000000    23.96000000
   C    113.78000000    64.07000000    22.76000000
   C    114.58000000    63.14000000    21.85000000
   O    115.36000000    62.32000000    22.33000000
   H    112.28000000    63.23000000    24.03000000
   H    114.34000000    64.99000000    22.92000000
   H    112.85000000    64.36000000    22.26000000
   N    114.33000000    63.24000000    20.54000000
   C    115.08000000    62.46000000    19.58000000
   C    114.86000000    62.94000000    18.15000000
   O    113.74000000    63.29000000    17.78000000
   C    114.59000000    61.02000000    19.61000000
   C    113.11000000    60.71000000    19.56000000
   C    112.50000000    60.45000000    20.80000000
   C    112.36000000    60.72000000    18.39000000
   C    111.13000000    60.19000000    20.86000000
   C    111.02000000    60.32000000    18.46000000
   C    110.38000000    60.00000000    19.68000000
   O    109.03000000    59.87000000    19.77000000
   H    113.63000000    63.88000000    20.18000000
   H    116.15000000    62.59000000    19.76000000
   H    114.97000000    60.54000000    20.52000000
   H    115.03000000    60.34000000    18.88000000
   H    113.06000000    60.59000000    21.71000000
   H    112.84000000    60.99000000    17.46000000
   H    110.62000000    60.02000000    21.80000000
   H    110.40000000    60.35000000    17.58000000
   H    108.66000000    59.96000000    18.89000000
   N    115.94000000    63.09000000    17.39000000
   C    116.12000000    64.01000000    16.28000000
   C    116.89000000    63.44000000    15.09000000
   O    116.91000000    64.06000000    14.03000000
   C    116.64000000    65.39000000    16.68000000
   C    115.71000000    66.12000000    17.65000000
   C    118.03000000    65.21000000    17.30000000
   C    116.13000000    67.52000000    18.08000000
   H    116.76000000    62.65000000    17.77000000
   H    115.10000000    64.19000000    15.94000000
   H    116.79000000    66.00000000    15.79000000
   H    115.65000000    65.57000000    18.59000000
   H    114.73000000    66.06000000    17.18000000
   H    117.83000000    64.87000000    18.31000000
   H    118.71000000    64.49000000    16.85000000
   H    118.53000000    66.17000000    17.43000000
   H    116.27000000    68.03000000    17.13000000
   H    115.45000000    68.08000000    18.73000000
   H    117.05000000    67.56000000    18.65000000
   N    117.52000000    62.28000000    15.24000000
   C    118.40000000    61.64000000    14.28000000
   C    119.81000000    61.43000000    14.82000000
   O    120.71000000    61.08000000    14.06000000
   C    117.82000000    60.30000000    13.82000000
   O    117.13000000    59.53000000    14.77000000
   H    117.40000000    61.73000000    16.07000000
   H    118.54000000    62.28000000    13.41000000
   H    118.66000000    59.73000000    13.41000000
   H    117.12000000    60.52000000    13.01000000
   H    117.56000000    59.68000000    15.62000000
   N    120.04000000    61.60000000    16.12000000
   C    121.29000000    61.65000000    16.87000000
   C    121.86000000    60.31000000    17.31000000
   O    122.65000000    60.33000000    18.25000000
   C    121.31000000    62.82000000    17.85000000
   H    119.26000000    61.70000000    16.75000000
   H    122.04000000    61.85000000    16.10000000
   H    122.21000000    62.89000000    18.45000000
   H    121.25000000    63.68000000    17.18000000
   H    120.46000000    62.80000000    18.53000000
   N    121.43000000    59.20000000    16.72000000
   C    121.84000000    57.86000000    17.11000000
   C    121.24000000    57.46000000    18.45000000
   O    122.01000000    57.13000000    19.35000000
   C    123.33000000    57.74000000    16.84000000
   H    120.97000000    59.30000000    15.82000000
   H    121.43000000    57.17000000    16.38000000
   H    123.79000000    56.76000000    16.91000000
   H    123.46000000    58.08000000    15.81000000
   H    123.91000000    58.25000000    17.62000000
   N    119.92000000    57.50000000    18.64000000
   C    119.12000000    57.34000000    19.84000000
   C    117.98000000    56.34000000    19.82000000
   O    117.58000000    55.86000000    20.88000000
   C    118.65000000    58.75000000    20.21000000
   C    117.53000000    59.44000000    19.45000000
   C    117.97000000    60.26000000    18.24000000
   O    118.13000000    59.66000000    17.15000000
   O    118.00000000    61.51000000    18.21000000
   H    119.33000000    57.77000000    17.86000000
   H    119.77000000    56.86000000    20.58000000
   H    119.48000000    59.44000000    20.36000000
   H    118.21000000    58.64000000    21.20000000
   H    117.08000000    60.17000000    20.12000000
   H    116.78000000    58.69000000    19.21000000
   N    117.48000000    55.93000000    18.66000000
   C    116.43000000    54.94000000    18.50000000
   H    115.55800000    55.40700000    18.04200000
   H    116.78600000    54.13200000    17.86100000
   H    116.15600000    54.53900000    19.47600000
   H    117.68000000    56.44000000    17.81000000
  Ca    117.18100000    58.65000000    25.25000000
   O    117.36100000    59.68000000    28.04000000
   H    116.55100000    59.95000000    28.46000000
   H    117.99100000    60.36000000    28.27000000
   O    114.89100000    57.66000000    23.72000000
   H    114.31100000    58.01000000    23.04000000
   H    114.38100000    56.97000000    24.14000000
   O    114.98100000    59.97000000    26.14000000
   H    114.88100000    60.05000000    27.08000000
   H    114.10100000    59.83000000    25.81000000
   O    116.79100000    60.33000000    23.21000000
   H    116.04100000    60.89000000    22.99000000
   H    117.50100000    60.64000000    22.65000000
   O    117.94100000    56.88000000    23.51000000
   H    118.83100000    57.11000000    23.25000000
   H    117.53100000    56.58000000    22.69000000
   O    115.76100000    56.81000000    26.55000000
   H    114.87100000    57.09000000    26.74000000
   H    115.83100000    55.95000000    26.97000000

Ca 1.00



