%chk=loop4.apoCaM-CA-Ng.Init295.run21.water5.chk
%nprocshared=20
%mem=10GB
%nosave
#b3lyp/svp scf=(tight,noincore,xqc) Test 
#IOP(5/87=12) Density=Current Pop=(MK,readradii) iop(6/33=2) iop(6/42=6)

loop4.apoCaM-CA-Ng.Init295.run21.water5 

   -3  1 
   C     87.61000000    31.07000000    69.97000000
   C     88.95000000    31.62000000    69.52000000
   O     88.94000000    32.50000000    68.66000000
   H     86.85600000    31.28600000    69.21300000
   H     87.68700000    29.99100000    70.10800000
   H     87.32200000    31.53800000    70.91200000
   N     90.12000000    31.19000000    70.01000000
   C     91.47000000    31.62000000    69.68000000
   C     91.69000000    33.11000000    69.85000000
   O     92.65000000    33.69000000    69.35000000
   C     91.88000000    31.02000000    68.34000000
   C     92.03000000    29.50000000    68.33000000
   O     92.36000000    28.86000000    69.35000000
   O     91.62000000    28.84000000    67.36000000
   H     89.95000000    30.65000000    70.84000000
   H     92.04000000    31.18000000    70.50000000
   H     92.94000000    31.27000000    68.23000000
   H     91.37000000    31.27000000    67.41000000
   N     90.85000000    33.78000000    70.65000000
   C     90.77000000    35.20000000    70.89000000
   C     90.42000000    35.55000000    72.33000000
   O     89.27000000    35.40000000    72.75000000
   C     89.80000000    35.78000000    69.86000000
   C     90.11000000    35.57000000    68.38000000
   C     89.74000000    37.29000000    70.10000000
   C     88.93000000    35.88000000    67.46000000
   H     90.21000000    33.16000000    71.13000000
   H     91.76000000    35.61000000    70.68000000
   H     88.88000000    35.29000000    70.17000000
   H     90.50000000    34.58000000    68.12000000
   H     90.98000000    36.16000000    68.09000000
   H     89.09000000    37.49000000    70.96000000
   H     90.73000000    37.69000000    70.30000000
   H     89.35000000    37.91000000    69.29000000
   H     88.24000000    35.07000000    67.69000000
   H     88.51000000    36.84000000    67.74000000
   H     89.29000000    35.92000000    66.43000000
   N     91.35000000    35.93000000    73.21000000
   C     92.77000000    36.09000000    72.93000000
   C     93.33000000    34.71000000    72.61000000
   O     94.24000000    34.69000000    71.78000000
   C     93.51000000    36.69000000    74.12000000
   C     92.88000000    38.06000000    74.34000000
   O     93.15000000    38.98000000    73.54000000
   O     92.17000000    38.18000000    75.35000000
   H     91.02000000    36.00000000    74.16000000
   H     92.98000000    36.67000000    72.03000000
   H     94.58000000    36.85000000    73.95000000
   H     93.50000000    36.00000000    74.97000000
   N     92.83000000    33.58000000    73.11000000
   C     93.38000000    32.26000000    72.91000000
   C     94.72000000    32.12000000    73.63000000
   O     94.89000000    32.78000000    74.65000000
   H     92.06000000    33.66000000    73.76000000
   H     93.44000000    32.09000000    71.84000000
   H     92.81000000    31.42000000    73.31000000
   N     95.63000000    31.31000000    73.09000000
   C     96.99000000    31.05000000    73.53000000
   C     98.04000000    31.38000000    72.48000000
   O     99.23000000    31.23000000    72.73000000
   C     97.20000000    29.57000000    73.85000000
   C     96.58000000    28.55000000    72.90000000
   O     96.43000000    27.39000000    73.32000000
   O     96.24000000    28.85000000    71.73000000
   H     95.33000000    30.83000000    72.25000000
   H     97.26000000    31.70000000    74.36000000
   H     96.58000000    29.44000000    74.74000000
   H     98.23000000    29.28000000    74.04000000
   N     97.59000000    31.81000000    71.30000000
   C     98.35000000    32.02000000    70.08000000
   C     98.39000000    30.90000000    69.05000000
   O     98.97000000    31.13000000    67.99000000
   H     96.60000000    31.96000000    71.16000000
   H     99.35000000    32.30000000    70.41000000
   H     98.06000000    33.00000000    69.71000000
   N     97.85000000    29.74000000    69.41000000
   C     98.01000000    28.45000000    68.77000000
   C     97.75000000    28.36000000    67.27000000
   O     98.62000000    28.04000000    66.47000000
   C     99.32000000    27.76000000    69.16000000
   C     99.58000000    27.52000000    70.65000000
   C    100.99000000    27.15000000    71.10000000
   N    101.22000000    27.22000000    72.41000000
   O    101.83000000    26.97000000    70.22000000
   H     97.55000000    29.68000000    70.37000000
   H     97.26000000    27.76000000    69.17000000
   H    100.15000000    28.36000000    68.81000000
   H     99.44000000    26.76000000    68.73000000
   H     98.93000000    26.72000000    70.99000000
   H     99.41000000    28.47000000    71.17000000
   H    100.43000000    27.08000000    73.03000000
   H    102.21000000    27.25000000    72.60000000
   N     96.53000000    28.71000000    66.85000000
   C     96.04000000    28.53000000    65.50000000
   C     95.93000000    27.05000000    65.16000000
   O     95.35000000    26.26000000    65.90000000
   C     94.69000000    29.20000000    65.25000000
   C     94.88000000    30.68000000    65.60000000
   C     94.24000000    29.05000000    63.80000000
   H     95.89000000    29.11000000    67.52000000
   H     96.89000000    28.85000000    64.91000000
   H     93.93000000    28.82000000    65.93000000
   H     95.40000000    31.06000000    64.72000000
   H     93.93000000    31.20000000    65.71000000
   H     95.43000000    30.83000000    66.53000000
   H     94.13000000    28.01000000    63.48000000
   H     93.29000000    29.57000000    63.83000000
   H     95.01000000    29.53000000    63.19000000
   N     96.38000000    26.62000000    63.97000000
   C     96.22000000    25.23000000    63.57000000
   C     94.88000000    24.98000000    62.90000000
   O     94.45000000    25.72000000    62.02000000
   C     97.42000000    24.90000000    62.69000000
   C     97.27000000    23.51000000    62.10000000
   N     97.06000000    22.42000000    62.84000000
   O     97.42000000    23.38000000    60.88000000
   H     96.69000000    27.31000000    63.31000000
   H     96.29000000    24.64000000    64.49000000
   H     98.33000000    24.96000000    63.29000000
   H     97.53000000    25.60000000    61.87000000
   H     96.87000000    22.45000000    63.83000000
   H     97.07000000    21.50000000    62.42000000
   N     94.30000000    23.82000000    63.19000000
   C     93.20000000    23.23000000    62.45000000
   C     92.59000000    22.17000000    63.36000000
   O     92.70000000    20.98000000    63.08000000
   C     93.77000000    22.64000000    61.16000000
   C     92.81000000    22.22000000    60.07000000
   C     92.15000000    23.20000000    59.33000000
   C     92.78000000    20.87000000    59.70000000
   C     91.32000000    22.79000000    58.27000000
   C     92.01000000    20.46000000    58.60000000
   C     91.23000000    21.43000000    57.94000000
   O     90.29000000    21.05000000    57.03000000
   H     94.62000000    23.31000000    64.00000000
   H     92.56000000    24.09000000    62.28000000
   H     94.40000000    21.77000000    61.37000000
   H     94.43000000    23.36000000    60.69000000
   H     92.20000000    24.27000000    59.47000000
   H     93.34000000    20.06000000    60.16000000
   H     90.80000000    23.55000000    57.70000000
   H     91.84000000    19.41000000    58.38000000
   H     90.20000000    20.10000000    57.04000000
   N     92.03000000    22.63000000    64.49000000
   C     91.41000000    21.88000000    65.55000000
   C     90.18000000    21.10000000    65.10000000
   O     90.18000000    19.91000000    64.81000000
   C     91.29000000    22.66000000    66.86000000
   C     92.69000000    22.94000000    67.40000000
   C     92.63000000    23.81000000    68.64000000
   O     91.59000000    24.30000000    69.13000000
   O     93.72000000    24.19000000    69.12000000
   H     92.15000000    23.62000000    64.63000000
   H     92.05000000    21.01000000    65.74000000
   H     90.71000000    22.08000000    67.58000000
   H     90.67000000    23.53000000    66.68000000
   H     93.31000000    23.48000000    66.68000000
   H     93.18000000    22.00000000    67.68000000
   N     88.97000000    21.65000000    64.95000000
   C     88.60000000    23.05000000    65.00000000
   C     87.79000000    23.53000000    63.81000000
   O     87.30000000    22.71000000    63.04000000
   C     87.82000000    23.26000000    66.30000000
   C     86.53000000    22.45000000    66.40000000
   C     86.87000000    21.13000000    67.08000000
   O     86.67000000    20.08000000    66.44000000
   O     87.16000000    21.06000000    68.29000000
   H     88.23000000    21.11000000    64.54000000
   H     89.45000000    23.74000000    65.02000000
   H     87.59000000    24.32000000    66.39000000
   H     88.47000000    23.14000000    67.17000000
   H     85.94000000    22.42000000    65.49000000
   H     85.91000000    23.01000000    67.10000000
   N     87.67000000    24.84000000    63.57000000
   C     87.14000000    25.51000000    62.40000000
   H     86.24800000    26.07100000    62.67700000
   H     87.89000000    26.19400000    62.00100000
   H     86.88300000    24.77000000    61.64200000
   H     88.02000000    25.40000000    64.33000000
  Ca     92.56000000    26.44000000    70.21000000
   O     93.40000000    26.73000000    67.65000000
   H     94.05000000    26.67000000    66.95000000
   H     92.77000000    27.37000000    67.33000000
   O     92.83000000    28.34000000    72.02000000
   H     91.97000000    28.75000000    72.13000000
   H     93.28000000    28.50000000    72.85000000
   O     90.21000000    27.06000000    68.39000000
   H     90.75000000    27.74000000    67.99000000
   H     89.68000000    27.53000000    69.04000000
   O     95.25000000    26.75000000    70.47000000
   H     96.06000000    26.24000000    70.45000000
   H     95.46000000    27.51000000    71.01000000
   O     93.03000000    25.02000000    72.34000000
   H     92.23000000    25.08000000    72.87000000
   H     93.73000000    24.89000000    72.98000000

Ca 1.00



