%chk=loop2.holoCaM.run66.water2.chk
%nprocshared=20
%mem=10GB
%nosave
#b3lyp/svp scf=(tight,noincore,xqc) Test 
#IOP(5/87=12) Density=Current Pop=(MK,readradii) iop(6/33=2) iop(6/42=6)

loop2.holoCaM.run66.water2 

   -2  1 
   C     41.10000000    60.82000000    21.66000000
   C     40.26000000    60.65000000    22.92000000
   O     40.48000000    61.34000000    23.91000000
   H     42.08500000    60.38100000    21.81900000
   H     40.61000000    60.31900000    20.82500000
   H     41.20800000    61.88100000    21.43500000
   N     39.34000000    59.69000000    23.01000000
   C     38.57000000    59.28000000    24.17000000
   C     39.20000000    58.29000000    25.13000000
   O     39.52000000    57.20000000    24.67000000
   C     37.21000000    58.85000000    23.61000000
   C     36.35000000    58.37000000    24.77000000
   O     35.30000000    57.73000000    24.53000000
   O     36.44000000    59.02000000    25.83000000
   H     39.11000000    59.19000000    22.17000000
   H     38.33000000    60.17000000    24.76000000
   H     37.39000000    58.04000000    22.91000000
   H     36.79000000    59.79000000    23.27000000
   N     39.11000000    58.52000000    26.45000000
   C     39.90000000    57.77000000    27.40000000
   C     39.05000000    56.70000000    28.06000000
   O     39.55000000    55.77000000    28.69000000
   C     40.36000000    58.72000000    28.49000000
   H     38.72000000    59.42000000    26.68000000
   H     40.73000000    57.32000000    26.84000000
   H     39.54000000    59.29000000    28.93000000
   H     40.91000000    58.15000000    29.25000000
   H     41.06000000    59.42000000    28.04000000
   N     37.72000000    56.76000000    27.93000000
   C     36.71000000    56.02000000    28.65000000
   C     35.79000000    55.16000000    27.79000000
   O     34.97000000    54.41000000    28.31000000
   C     35.94000000    56.89000000    29.63000000
   C     35.29000000    58.14000000    29.05000000
   O     34.20000000    57.99000000    28.46000000
   O     35.86000000    59.24000000    29.17000000
   H     37.34000000    57.51000000    27.37000000
   H     37.20000000    55.38000000    29.39000000
   H     36.57000000    57.09000000    30.50000000
   H     35.21000000    56.25000000    30.12000000
   N     35.77000000    55.22000000    26.46000000
   C     35.04000000    54.33000000    25.57000000
   C     33.62000000    54.75000000    25.21000000
   O     33.04000000    54.10000000    24.36000000
   H     36.45000000    55.84000000    26.04000000
   H     34.98000000    53.33000000    26.00000000
   H     35.64000000    54.30000000    24.67000000
   N     33.04000000    55.76000000    25.86000000
   C     31.64000000    56.14000000    25.73000000
   C     31.36000000    57.22000000    24.70000000
   O     30.26000000    57.75000000    24.53000000
   C     31.00000000    56.70000000    27.00000000
   C     30.97000000    55.69000000    28.14000000
   N     31.99000000    55.69000000    29.00000000
   O     30.01000000    54.94000000    28.24000000
   H     33.57000000    56.34000000    26.50000000
   H     31.14000000    55.23000000    25.40000000
   H     29.97000000    57.01000000    26.86000000
   H     31.50000000    57.63000000    27.28000000
   H     32.71000000    56.39000000    28.87000000
   H     32.01000000    55.04000000    29.77000000
   N     32.38000000    57.50000000    23.88000000
   C     32.34000000    58.35000000    22.71000000
   C     31.93000000    59.79000000    22.98000000
   O     31.55000000    60.48000000    22.04000000
   H     33.25000000    57.06000000    24.14000000
   H     31.71000000    57.99000000    21.90000000
   H     33.36000000    58.40000000    22.33000000
   N     31.84000000    60.32000000    24.21000000
   C     31.62000000    61.71000000    24.54000000
   C     32.95000000    62.45000000    24.64000000
   O     33.82000000    61.92000000    25.32000000
   C     30.82000000    61.85000000    25.83000000
   C     30.24000000    63.26000000    25.87000000
   O     29.64000000    61.09000000    25.65000000
   H     32.07000000    59.65000000    24.93000000
   H     30.95000000    62.24000000    23.87000000
   H     31.39000000    61.64000000    26.74000000
   H     29.00000000    61.43000000    26.27000000
   H     29.36000000    63.39000000    25.24000000
   H     29.91000000    63.60000000    26.86000000
   H     30.86000000    64.09000000    25.52000000
   N     33.02000000    63.67000000    24.09000000
   C     34.21000000    64.48000000    24.20000000
   C     34.09000000    65.37000000    25.43000000
   O     33.23000000    66.23000000    25.57000000
   C     34.51000000    65.28000000    22.93000000
   C     34.88000000    64.35000000    21.78000000
   C     35.57000000    66.36000000    23.09000000
   C     36.21000000    63.62000000    21.97000000
   H     32.29000000    63.97000000    23.46000000
   H     35.05000000    63.82000000    24.42000000
   H     33.58000000    65.75000000    22.61000000
   H     35.03000000    64.87000000    20.84000000
   H     34.12000000    63.58000000    21.62000000
   H     35.86000000    66.83000000    22.15000000
   H     35.15000000    67.15000000    23.72000000
   H     36.48000000    65.98000000    23.56000000
   H     36.44000000    62.90000000    21.19000000
   H     37.02000000    64.34000000    22.02000000
   H     36.32000000    63.15000000    22.95000000
   N     35.04000000    65.10000000    26.33000000
   C     35.25000000    65.91000000    27.51000000
   C     36.18000000    67.06000000    27.15000000
   O     36.58000000    67.18000000    25.99000000
   C     35.86000000    65.05000000    28.62000000
   C     35.17000000    63.72000000    28.86000000
   O     35.82000000    62.65000000    28.87000000
   O     33.96000000    63.63000000    29.16000000
   H     35.66000000    64.32000000    26.16000000
   H     34.31000000    66.24000000    27.95000000
   H     35.79000000    65.50000000    29.61000000
   H     36.88000000    64.85000000    28.29000000
   N     36.54000000    67.96000000    28.07000000
   C     37.28000000    69.18000000    27.85000000
   C     38.76000000    68.90000000    27.65000000
   O     39.22000000    69.31000000    26.58000000
   C     37.02000000    70.23000000    28.94000000
   C     37.88000000    71.47000000    28.81000000
   C     37.78000000    72.34000000    27.71000000
   C     38.89000000    71.77000000    29.73000000
   C     38.59000000    73.46000000    27.51000000
   C     39.72000000    72.88000000    29.57000000
   C     39.57000000    73.74000000    28.48000000
   H     36.17000000    67.80000000    29.00000000
   H     36.87000000    69.56000000    26.91000000
   H     37.18000000    69.69000000    29.88000000
   H     35.98000000    70.47000000    28.75000000
   H     37.06000000    72.08000000    26.95000000
   H     39.07000000    71.05000000    30.51000000
   H     38.50000000    73.98000000    26.57000000
   H     40.51000000    72.96000000    30.31000000
   H     40.28000000    74.54000000    28.40000000
   N     39.44000000    68.14000000    28.51000000
   C     40.74000000    67.56000000    28.25000000
   C     40.88000000    66.72000000    26.99000000
   O     41.90000000    66.72000000    26.32000000
   C     41.15000000    66.72000000    29.45000000
   C     40.12000000    67.15000000    30.49000000
   C     38.90000000    67.72000000    29.78000000
   H     41.52000000    68.33000000    28.32000000
   H     41.23000000    65.66000000    29.20000000
   H     42.13000000    67.02000000    29.82000000
   H     39.93000000    66.31000000    31.16000000
   H     40.46000000    67.95000000    31.14000000
   H     38.22000000    66.87000000    29.83000000
   H     38.68000000    68.55000000    30.46000000
   N     39.82000000    66.03000000    26.56000000
   C     39.77000000    65.37000000    25.27000000
   C     39.58000000    66.31000000    24.09000000
   O     40.24000000    66.02000000    23.09000000
   C     38.70000000    64.28000000    25.29000000
   C     38.91000000    63.22000000    26.36000000
   C     37.78000000    62.20000000    26.36000000
   O     36.70000000    62.53000000    25.81000000
   O     37.91000000    61.16000000    27.03000000
   H     38.97000000    66.04000000    27.11000000
   H     40.70000000    64.85000000    25.04000000
   H     38.67000000    63.74000000    24.34000000
   H     37.77000000    64.83000000    25.47000000
   H     39.12000000    63.66000000    27.33000000
   H     39.72000000    62.56000000    26.05000000
   N     38.82000000    67.39000000    24.27000000
   C     38.72000000    68.43000000    23.27000000
   H     38.14400000    69.26400000    23.67000000
   H     39.71900000    68.77500000    23.00200000
   H     38.22100000    68.03700000    22.38400000
   H     38.22000000    67.47000000    25.08000000
  Ca     35.29000000    60.86000000    27.21000000
   O     32.82000000    61.28000000    28.49000000
   H     32.98000000    62.11000000    28.93000000
   H     32.27000000    60.79000000    29.10000000
   O     33.56000000    59.01000000    26.25000000
   H     33.93000000    58.40000000    25.61000000
   H     33.75000000    58.61000000    27.10000000

Ca 1.00



