%chk=loop1.apoCaM-CA-Ng.Init31.run21.water4.chk
%nprocshared=20
%mem=10GB
%nosave
#b3lyp/svp scf=(tight,noincore,xqc) Test 
#IOP(5/87=12) Density=Current Pop=(MK,readradii) iop(6/33=2) iop(6/42=6)

loop1.apoCaM-CA-Ng.Init31.run21.water4 

   0  1 
   C     79.82000000    67.16000000    -9.96000000
   C     78.98000000    66.68000000   -11.14000000
   O     79.16000000    67.20000000   -12.24000000
   H     80.71500000    67.65900000   -10.33100000
   H     79.23800000    67.85900000    -9.35900000
   H     80.10800000    66.30600000    -9.34700000
   N     78.06000000    65.72000000   -10.98000000
   C     77.10000000    65.19000000   -11.93000000
   C     75.84000000    64.95000000   -11.11000000
   O     75.73000000    65.16000000    -9.91000000
   C     77.80000000    63.90000000   -12.36000000
   C     76.96000000    63.23000000   -13.44000000
   O     76.09000000    63.87000000   -14.06000000
   O     77.02000000    61.99000000   -13.57000000
   H     78.03000000    65.30000000   -10.06000000
   H     76.90000000    65.86000000   -12.76000000
   H     77.72000000    63.17000000   -11.55000000
   H     78.83000000    63.99000000   -12.68000000
   N     74.76000000    64.55000000   -11.79000000
   C     73.40000000    64.43000000   -11.31000000
   C     73.03000000    63.30000000   -10.36000000
   O     72.29000000    63.53000000    -9.41000000
   C     72.51000000    64.54000000   -12.55000000
   C     72.34000000    65.91000000   -13.20000000
   C     71.68000000    65.70000000   -14.56000000
   C     71.51000000    67.10000000   -15.15000000
   N     71.01000000    67.16000000   -16.53000000
   H     74.85000000    64.31000000   -12.77000000
   H     73.10000000    65.29000000   -10.71000000
   H     71.56000000    64.11000000   -12.24000000
   H     72.84000000    63.88000000   -13.35000000
   H     73.33000000    66.31000000   -13.40000000
   H     71.71000000    66.58000000   -12.61000000
   H     70.69000000    65.23000000   -14.47000000
   H     72.33000000    65.11000000   -15.19000000
   H     72.47000000    67.61000000   -15.08000000
   H     70.78000000    67.63000000   -14.53000000
   H     71.76000000    66.83000000   -17.11000000
   H     70.18000000    66.61000000   -16.68000000
   H     70.78000000    68.10000000   -16.82000000
   N     73.32000000    62.02000000   -10.60000000
   C     73.91000000    61.37000000   -11.75000000
   C     74.77000000    60.19000000   -11.33000000
   O     74.33000000    59.30000000   -10.61000000
   C     72.80000000    61.06000000   -12.75000000
   C     73.31000000    60.34000000   -14.00000000
   O     72.97000000    59.19000000   -14.34000000
   O     74.06000000    61.02000000   -14.74000000
   H     72.76000000    61.45000000    -9.97000000
   H     74.61000000    62.07000000   -12.20000000
   H     72.26000000    61.95000000   -13.07000000
   H     72.04000000    60.42000000   -12.31000000
   N     76.04000000    60.13000000   -11.76000000
   C     76.91000000    59.09000000   -11.27000000
   C     78.24000000    59.07000000   -12.02000000
   O     79.15000000    59.74000000   -11.56000000
   H     76.48000000    60.77000000   -12.40000000
   H     76.53000000    58.07000000   -11.33000000
   H     77.15000000    59.45000000   -10.27000000
   N     78.45000000    58.22000000   -13.03000000
   C     79.63000000    58.10000000   -13.87000000
   C     80.55000000    56.91000000   -13.60000000
   O     80.09000000    55.81000000   -13.33000000
   C     79.11000000    58.19000000   -15.31000000
   C     78.21000000    59.41000000   -15.50000000
   O     78.69000000    60.56000000   -15.59000000
   O     77.01000000    59.14000000   -15.71000000
   H     77.70000000    57.65000000   -13.40000000
   H     80.27000000    58.95000000   -13.67000000
   H     78.60000000    57.29000000   -15.64000000
   H     79.96000000    58.38000000   -15.96000000
   N     81.87000000    57.05000000   -13.75000000
   C     82.60000000    58.08000000   -14.45000000
   C     82.75000000    57.87000000   -15.95000000
   O     82.92000000    58.79000000   -16.75000000
   H     82.37000000    56.24000000   -13.41000000
   H     83.61000000    58.11000000   -14.03000000
   H     82.22000000    59.09000000   -14.29000000
   N     82.68000000    56.61000000   -16.39000000
   C     83.02000000    56.06000000   -17.69000000
   C     84.49000000    56.30000000   -17.99000000
   O     84.87000000    57.15000000   -18.80000000
   C     82.02000000    56.46000000   -18.77000000
   C     80.57000000    56.10000000   -18.47000000
   O     82.49000000    55.85000000   -19.95000000
   H     82.48000000    55.92000000   -15.69000000
   H     82.94000000    54.98000000   -17.55000000
   H     82.12000000    57.52000000   -19.00000000
   H     83.19000000    56.45000000   -20.22000000
   H     79.91000000    56.80000000   -18.98000000
   H     80.50000000    55.05000000   -18.76000000
   H     80.40000000    56.18000000   -17.39000000
   N     85.32000000    55.49000000   -17.32000000
   C     86.75000000    55.30000000   -17.47000000
   C     87.20000000    54.89000000   -18.86000000
   O     87.98000000    53.94000000   -18.94000000
   C     87.56000000    56.44000000   -16.85000000
   C     87.35000000    56.70000000   -15.37000000
   C     89.06000000    56.20000000   -16.98000000
   C     87.64000000    58.17000000   -15.04000000
   H     84.91000000    54.92000000   -16.60000000
   H     86.91000000    54.41000000   -16.88000000
   H     87.34000000    57.36000000   -17.39000000
   H     87.92000000    55.98000000   -14.79000000
   H     86.29000000    56.69000000   -15.10000000
   H     89.58000000    57.07000000   -16.58000000
   H     89.29000000    55.33000000   -16.35000000
   H     89.44000000    56.08000000   -17.99000000
   H     88.72000000    58.26000000   -14.89000000
   H     87.38000000    58.90000000   -15.80000000
   H     87.03000000    58.39000000   -14.17000000
   N     86.80000000    55.52000000   -19.97000000
   C     87.11000000    55.22000000   -21.35000000
   C     88.54000000    55.52000000   -21.77000000
   O     89.15000000    56.36000000   -21.11000000
   C     86.07000000    55.75000000   -22.33000000
   C     85.75000000    57.21000000   -22.07000000
   O     84.87000000    55.03000000   -22.17000000
   H     86.17000000    56.29000000   -19.79000000
   H     87.07000000    54.13000000   -21.35000000
   H     86.45000000    55.67000000   -23.35000000
   H     84.28000000    55.13000000   -22.92000000
   H     86.57000000    57.76000000   -21.61000000
   H     85.56000000    57.63000000   -23.07000000
   H     84.88000000    57.41000000   -21.44000000
   N     89.16000000    54.84000000   -22.75000000
   C     90.43000000    55.25000000   -23.32000000
   C     90.18000000    56.49000000   -24.15000000
   O     89.68000000    56.37000000   -25.27000000
   C     91.11000000    54.10000000   -24.06000000
   C     92.53000000    54.47000000   -24.47000000
   O     91.19000000    52.90000000   -23.32000000
   H     88.75000000    53.99000000   -23.10000000
   H     91.10000000    55.38000000   -22.47000000
   H     90.62000000    53.89000000   -25.01000000
   H     91.33000000    53.08000000   -22.39000000
   H     92.44000000    55.27000000   -25.20000000
   H     93.00000000    54.87000000   -23.57000000
   H     93.15000000    53.69000000   -24.92000000
   N     90.63000000    57.64000000   -23.63000000
   C     90.41000000    58.97000000   -24.15000000
   C     88.98000000    59.49000000   -24.05000000
   O     88.04000000    58.72000000   -24.22000000
   C     90.90000000    59.17000000   -25.59000000
   C     92.37000000    58.85000000   -25.80000000
   C     92.67000000    58.44000000   -27.24000000
   C     94.07000000    57.99000000   -27.66000000
   N     94.92000000    59.18000000   -27.61000000
   H     91.09000000    57.53000000   -22.74000000
   H     91.07000000    59.62000000   -23.57000000
   H     90.81000000    60.24000000   -25.76000000
   H     90.30000000    58.65000000   -26.33000000
   H     92.59000000    58.04000000   -25.11000000
   H     92.84000000    59.81000000   -25.61000000
   H     92.32000000    59.25000000   -27.88000000
   H     91.99000000    57.62000000   -27.46000000
   H     94.12000000    57.70000000   -28.71000000
   H     94.42000000    57.10000000   -27.13000000
   H     95.69000000    59.12000000   -28.26000000
   H     94.52000000    60.03000000   -27.99000000
   H     95.22000000    59.50000000   -26.70000000
   N     88.85000000    60.82000000   -23.96000000
   C     87.62000000    61.55000000   -24.16000000
   C     86.75000000    61.37000000   -22.93000000
   O     85.59000000    61.01000000   -23.09000000
   C     87.87000000    63.02000000   -24.49000000
   C     88.38000000    63.29000000   -25.90000000
   C     87.28000000    63.01000000   -26.92000000
   O     87.26000000    61.90000000   -27.51000000
   O     86.43000000    63.89000000   -27.16000000
   H     89.70000000    61.30000000   -23.69000000
   H     87.03000000    61.08000000   -24.95000000
   H     88.62000000    63.36000000   -23.78000000
   H     86.94000000    63.57000000   -24.34000000
   H     89.30000000    62.71000000   -25.99000000
   H     88.59000000    64.35000000   -26.02000000
   N     87.19000000    61.55000000   -21.68000000
   C     88.34000000    62.24000000   -21.14000000
   H     89.14600000    62.23200000   -21.87400000
   H     88.07100000    63.27100000   -20.90900000
   H     88.67200000    61.73800000   -20.23100000
   H     86.53000000    61.31000000   -20.95000000
  Ca     76.41000000    61.80000000   -16.00200000
   O     78.24000000    63.78000000   -16.31200000
   H     77.62000000    64.44000000   -16.64200000
   H     79.06000000    64.26000000   -16.21200000
   O     77.54000000    61.72000000   -18.48200000
   H     77.49000000    61.05000000   -19.17200000
   H     77.84000000    62.50000000   -18.94200000
   O     75.31000000    63.67000000   -17.45200000
   H     74.37000000    63.68000000   -17.28200000
   H     75.41000000    64.21000000   -18.24200000
   O     74.66000000    60.35000000   -17.64200000
   H     73.83000000    59.95000000   -17.36200000
   H     74.52000000    60.56000000   -18.56200000

Ca 1.00



