%chk=loop4.apoCaM-CA-Ng.Init295.run28.water5.chk
%nprocshared=20
%mem=10GB
%nosave
#b3lyp/svp scf=(tight,noincore,xqc) Test 
#IOP(5/87=12) Density=Current Pop=(MK,readradii) iop(6/33=2) iop(6/42=6)

loop4.apoCaM-CA-Ng.Init295.run28.water5 

   -3  1 
   C     75.41000000    56.27000000    74.36000000
   C     76.30000000    55.32000000    73.58000000
   O     77.11000000    55.79000000    72.79000000
   H     74.44900000    55.79300000    74.55000000
   H     75.88600000    56.51800000    75.30900000
   H     75.25500000    57.18100000    73.78200000
   N     76.26000000    54.04000000    73.98000000
   C     77.10000000    52.92000000    73.59000000
   C     78.59000000    53.10000000    73.78000000
   O     79.37000000    52.16000000    73.63000000
   C     76.75000000    52.35000000    72.21000000
   C     75.25000000    52.20000000    72.07000000
   O     74.61000000    51.42000000    72.82000000
   O     74.55000000    52.91000000    71.31000000
   H     75.54000000    53.90000000    74.66000000
   H     76.79000000    52.18000000    74.32000000
   H     77.15000000    51.34000000    72.13000000
   H     77.17000000    52.93000000    71.39000000
   N     79.10000000    54.27000000    74.18000000
   C     80.46000000    54.61000000    74.55000000
   C     80.46000000    54.79000000    76.06000000
   O     79.84000000    55.77000000    76.48000000
   C     80.82000000    55.85000000    73.74000000
   C     81.03000000    55.41000000    72.30000000
   C     82.07000000    56.52000000    74.30000000
   C     81.53000000    56.52000000    71.38000000
   H     78.48000000    55.06000000    74.32000000
   H     81.17000000    53.84000000    74.24000000
   H     80.04000000    56.61000000    73.76000000
   H     80.10000000    55.08000000    71.82000000
   H     81.70000000    54.56000000    72.22000000
   H     82.30000000    57.50000000    73.87000000
   H     81.99000000    56.84000000    75.34000000
   H     82.91000000    55.83000000    74.28000000
   H     81.19000000    56.38000000    70.35000000
   H     81.04000000    57.45000000    71.68000000
   H     82.61000000    56.67000000    71.40000000
   N     81.18000000    54.07000000    76.93000000
   C     81.94000000    52.87000000    76.65000000
   C     81.24000000    51.57000000    76.30000000
   O     81.82000000    50.77000000    75.56000000
   C     82.99000000    52.58000000    77.73000000
   C     83.70000000    53.77000000    78.35000000
   O     84.79000000    54.13000000    77.86000000
   O     83.15000000    54.42000000    79.26000000
   H     81.30000000    54.61000000    77.77000000
   H     82.48000000    52.94000000    75.71000000
   H     83.75000000    51.87000000    77.39000000
   H     82.53000000    52.12000000    78.60000000
   N     80.05000000    51.39000000    76.87000000
   C     79.17000000    50.28000000    76.57000000
   C     79.68000000    48.94000000    77.08000000
   O     80.06000000    48.72000000    78.23000000
   H     79.82000000    51.98000000    77.66000000
   H     78.87000000    50.26000000    75.52000000
   H     78.25000000    50.44000000    77.13000000
   N     79.86000000    48.06000000    76.10000000
   C     80.33000000    46.70000000    76.22000000
   C     81.45000000    46.43000000    75.23000000
   O     82.03000000    45.35000000    75.29000000
   C     79.20000000    45.69000000    76.05000000
   C     78.44000000    45.92000000    74.75000000
   O     78.90000000    46.60000000    73.81000000
   O     77.35000000    45.31000000    74.68000000
   H     79.63000000    48.33000000    75.15000000
   H     80.80000000    46.53000000    77.19000000
   H     78.52000000    45.93000000    76.87000000
   H     79.44000000    44.62000000    76.07000000
   N     81.85000000    47.38000000    74.38000000
   C     82.86000000    47.31000000    73.35000000
   C     82.31000000    47.18000000    71.94000000
   O     83.09000000    47.43000000    71.01000000
   H     81.13000000    48.09000000    74.31000000
   H     83.39000000    46.37000000    73.52000000
   H     83.64000000    48.05000000    73.49000000
   N     81.07000000    46.72000000    71.75000000
   C     80.50000000    46.21000000    70.53000000
   C     80.59000000    47.05000000    69.26000000
   O     80.95000000    46.58000000    68.18000000
   C     80.94000000    44.76000000    70.33000000
   C     80.60000000    43.77000000    71.44000000
   C     80.83000000    42.35000000    70.93000000
   N     80.51000000    41.26000000    71.63000000
   O     81.41000000    42.17000000    69.87000000
   H     80.62000000    46.43000000    72.61000000
   H     79.41000000    46.21000000    70.64000000
   H     81.99000000    44.61000000    70.08000000
   H     80.40000000    44.40000000    69.45000000
   H     79.58000000    43.77000000    71.84000000
   H     81.32000000    43.94000000    72.24000000
   H     80.24000000    41.32000000    72.60000000
   H     80.90000000    40.40000000    71.27000000
   N     80.23000000    48.33000000    69.37000000
   C     80.17000000    49.31000000    68.30000000
   C     79.05000000    48.92000000    67.35000000
   O     77.95000000    48.56000000    67.77000000
   C     80.12000000    50.74000000    68.82000000
   C     79.97000000    51.70000000    67.64000000
   C     79.02000000    50.97000000    69.85000000
   H     80.02000000    48.69000000    70.29000000
   H     81.10000000    49.11000000    67.76000000
   H     81.13000000    50.92000000    69.18000000
   H     80.78000000    51.54000000    66.93000000
   H     79.05000000    51.59000000    67.08000000
   H     79.95000000    52.74000000    67.98000000
   H     79.11000000    50.18000000    70.59000000
   H     79.10000000    51.97000000    70.29000000
   H     78.05000000    50.86000000    69.36000000
   N     79.32000000    49.02000000    66.05000000
   C     78.55000000    48.45000000    64.96000000
   C     78.03000000    49.55000000    64.05000000
   O     78.76000000    50.49000000    63.73000000
   C     79.54000000    47.55000000    64.23000000
   C     78.83000000    46.94000000    63.02000000
   N     77.70000000    46.26000000    63.23000000
   O     79.27000000    47.03000000    61.88000000
   H     80.24000000    49.28000000    65.72000000
   H     77.71000000    47.86000000    65.32000000
   H     79.85000000    46.71000000    64.85000000
   H     80.48000000    47.98000000    63.88000000
   H     77.34000000    46.07000000    64.15000000
   H     77.27000000    45.87000000    62.40000000
   N     76.80000000    49.43000000    63.54000000
   C     76.28000000    50.34000000    62.53000000
   C     74.78000000    50.45000000    62.71000000
   O     74.01000000    50.46000000    61.75000000
   C     76.62000000    49.77000000    61.16000000
   C     76.23000000    50.59000000    59.95000000
   C     76.62000000    51.92000000    59.77000000
   C     75.39000000    49.97000000    59.01000000
   C     76.23000000    52.63000000    58.63000000
   C     75.01000000    50.70000000    57.88000000
   C     75.41000000    52.04000000    57.66000000
   O     74.96000000    52.82000000    56.64000000
   H     76.26000000    48.65000000    63.88000000
   H     76.57000000    51.39000000    62.60000000
   H     76.12000000    48.81000000    61.03000000
   H     77.70000000    49.61000000    61.08000000
   H     77.26000000    52.41000000    60.50000000
   H     75.04000000    48.97000000    59.22000000
   H     76.59000000    53.64000000    58.47000000
   H     74.31000000    50.19000000    57.24000000
   H     74.25000000    52.40000000    56.15000000
   N     74.31000000    50.58000000    63.96000000
   C     72.92000000    50.76000000    64.31000000
   C     72.17000000    51.92000000    63.67000000
   O     71.14000000    51.76000000    63.02000000
   C     72.73000000    50.68000000    65.82000000
   C     71.29000000    50.35000000    66.17000000
   C     71.05000000    50.52000000    67.66000000
   O     70.21000000    51.31000000    68.14000000
   O     71.63000000    49.77000000    68.47000000
   H     75.01000000    50.50000000    64.69000000
   H     72.42000000    49.86000000    63.94000000
   H     72.91000000    51.64000000    66.31000000
   H     73.36000000    49.86000000    66.16000000
   H     71.10000000    49.33000000    65.83000000
   H     70.61000000    51.04000000    65.67000000
   N     72.63000000    53.17000000    63.71000000
   C     73.74000000    53.65000000    64.51000000
   C     74.88000000    54.14000000    63.63000000
   O     74.80000000    54.31000000    62.41000000
   C     73.19000000    54.70000000    65.47000000
   C     72.67000000    55.95000000    64.76000000
   C     71.21000000    55.85000000    64.37000000
   O     70.27000000    56.18000000    65.13000000
   O     70.92000000    55.60000000    63.18000000
   H     72.07000000    53.86000000    63.23000000
   H     74.18000000    52.91000000    65.17000000
   H     73.93000000    54.97000000    66.22000000
   H     72.32000000    54.23000000    65.93000000
   H     73.27000000    56.17000000    63.88000000
   H     72.73000000    56.75000000    65.50000000
   N     75.94000000    54.67000000    64.24000000
   C     77.09000000    55.29000000    63.61000000
   H     77.94300000    54.61400000    63.66700000
   H     76.86300000    55.50100000    62.56500000
   H     77.33000000    56.22000000    64.12500000
   H     75.99000000    54.49000000    65.23000000
  Ca     72.23000000    52.58000000    72.56000000
   O     69.61000000    52.70000000    71.57000000
   H     68.77000000    52.53000000    72.00000000
   H     69.37000000    53.08000000    70.72000000
   O     71.76000000    50.35000000    74.09000000
   H     72.50000000    49.73000000    74.09000000
   H     71.42000000    50.31000000    74.98000000
   O     72.13000000    55.42000000    72.69000000
   H     72.19000000    56.20000000    72.14000000
   H     72.46000000    55.70000000    73.55000000
   O     72.06000000    53.34000000    70.05000000
   H     72.58000000    54.00000000    69.60000000
   H     71.91000000    52.66000000    69.40000000
   O     72.17000000    50.29000000    71.08000000
   H     72.60000000    49.44000000    71.18000000
   H     71.88000000    50.30000000    70.17000000

Ca 1.00



