%chk=loop3.apoCaM-CA-Ng.Init31.run6.water5.chk
%nprocshared=20
%mem=10GB
%nosave
#b3lyp/svp scf=(tight,noincore,xqc) Test 
#IOP(5/87=12) Density=Current Pop=(MK,readradii) iop(6/33=2) iop(6/42=6)

loop3.apoCaM-CA-Ng.Init31.run6.water5 

   0  1 
   C     81.89000000    62.14000000    35.56000000
   C     82.28000000    61.07000000    36.58000000
   O     81.43000000    60.57000000    37.31000000
   H     81.01700000    62.68400000    35.92000000
   H     82.72000000    62.83400000    35.42600000
   H     81.65400000    61.66600000    34.60700000
   N     83.56000000    60.70000000    36.67000000
   C     84.07000000    59.69000000    37.58000000
   C     83.95000000    60.10000000    39.05000000
   O     83.52000000    59.25000000    39.82000000
   C     85.50000000    59.34000000    37.18000000
   C     86.45000000    60.49000000    36.87000000
   O     86.03000000    61.66000000    36.76000000
   O     87.67000000    60.29000000    36.68000000
   H     84.25000000    61.16000000    36.10000000
   H     83.53000000    58.76000000    37.41000000
   H     85.47000000    58.76000000    36.26000000
   H     85.97000000    58.73000000    37.96000000
   N     84.23000000    61.37000000    39.34000000
   C     83.89000000    62.09000000    40.56000000
   C     84.66000000    61.62000000    41.79000000
   O     85.89000000    61.61000000    41.80000000
   C     83.70000000    63.58000000    40.33000000
   C     82.68000000    63.83000000    39.23000000
   C     82.34000000    65.31000000    39.07000000
   C     81.16000000    65.47000000    38.12000000
   N     80.64000000    66.85000000    38.17000000
   H     84.57000000    61.94000000    38.58000000
   H     82.91000000    61.72000000    40.83000000
   H     84.65000000    64.01000000    40.01000000
   H     83.47000000    64.14000000    41.24000000
   H     81.83000000    63.18000000    39.46000000
   H     83.03000000    63.43000000    38.28000000
   H     83.27000000    65.78000000    38.74000000
   H     82.06000000    65.68000000    40.06000000
   H     80.34000000    64.83000000    38.47000000
   H     81.35000000    65.09000000    37.12000000
   H     79.82000000    66.89000000    37.58000000
   H     80.22000000    67.12000000    39.05000000
   H     81.34000000    67.51000000    37.87000000
   N     83.94000000    61.21000000    42.84000000
   C     84.48000000    60.39000000    43.91000000
   C     84.86000000    58.98000000    43.49000000
   O     85.33000000    58.21000000    44.34000000
   C     83.51000000    60.38000000    45.09000000
   C     84.25000000    60.39000000    46.42000000
   O     83.60000000    60.57000000    47.47000000
   O     85.50000000    60.40000000    46.48000000
   H     82.97000000    61.45000000    42.93000000
   H     85.45000000    60.76000000    44.23000000
   H     82.80000000    59.57000000    44.90000000
   H     82.76000000    61.18000000    45.09000000
   N     84.72000000    58.60000000    42.22000000
   C     85.19000000    57.36000000    41.63000000
   C     86.42000000    57.49000000    40.74000000
   O     86.94000000    58.61000000    40.66000000
   H     84.46000000    59.23000000    41.48000000
   H     84.44000000    57.00000000    40.93000000
   H     85.34000000    56.58000000    42.38000000
   N     86.98000000    56.46000000    40.11000000
   C     86.58000000    55.07000000    40.06000000
   C     86.56000000    54.61000000    38.61000000
   O     87.50000000    53.99000000    38.11000000
   C     87.51000000    54.28000000    40.98000000
   C     87.20000000    52.79000000    40.98000000
   N     85.92000000    52.42000000    40.92000000
   O     88.04000000    51.92000000    40.76000000
   H     87.81000000    56.72000000    39.60000000
   H     85.58000000    55.09000000    40.50000000
   H     87.41000000    54.69000000    41.98000000
   H     88.55000000    54.41000000    40.69000000
   H     85.18000000    53.05000000    41.21000000
   H     85.74000000    51.44000000    40.78000000
   N     85.54000000    54.90000000    37.80000000
   C     84.37000000    55.72000000    38.06000000
   C     83.27000000    55.08000000    38.89000000
   O     82.52000000    55.86000000    39.46000000
   H     85.60000000    54.47000000    36.89000000
   H     84.00000000    55.96000000    37.06000000
   H     84.63000000    56.60000000    38.65000000
   N     83.26000000    53.77000000    39.18000000
   C     82.33000000    53.32000000    40.19000000
   C     82.60000000    53.86000000    41.59000000
   O     83.77000000    53.96000000    41.94000000
   C     82.21000000    51.80000000    40.12000000
   C     81.89000000    51.30000000    38.73000000
   C     80.70000000    51.61000000    38.07000000
   C     82.87000000    50.49000000    38.14000000
   C     80.50000000    51.11000000    36.78000000
   C     82.61000000    49.88000000    36.91000000
   C     81.45000000    50.25000000    36.21000000
   O     81.31000000    49.81000000    34.92000000
   H     84.06000000    53.17000000    39.04000000
   H     81.38000000    53.70000000    39.83000000
   H     81.33000000    51.56000000    40.72000000
   H     83.10000000    51.34000000    40.56000000
   H     79.90000000    52.15000000    38.58000000
   H     83.78000000    50.31000000    38.70000000
   H     79.60000000    51.31000000    36.21000000
   H     83.32000000    49.14000000    36.56000000
   H     81.94000000    49.14000000    34.67000000
   N     81.47000000    54.14000000    42.24000000
   C     81.33000000    54.72000000    43.56000000
   C     80.91000000    53.72000000    44.62000000
   O     80.04000000    52.88000000    44.40000000
   C     80.47000000    55.97000000    43.40000000
   C     81.13000000    56.97000000    42.46000000
   C     79.00000000    55.70000000    43.09000000
   C     80.53000000    58.37000000    42.61000000
   H     80.65000000    53.72000000    41.83000000
   H     82.29000000    55.12000000    43.89000000
   H     80.47000000    56.46000000    44.37000000
   H     81.07000000    56.69000000    41.41000000
   H     82.16000000    57.10000000    42.80000000
   H     79.04000000    54.90000000    42.34000000
   H     78.51000000    55.40000000    44.02000000
   H     78.49000000    56.57000000    42.68000000
   H     79.53000000    58.58000000    42.23000000
   H     80.60000000    58.73000000    43.64000000
   H     81.20000000    59.02000000    42.04000000
   N     81.41000000    53.84000000    45.86000000
   C     81.18000000    53.03000000    47.03000000
   C     79.82000000    53.21000000    47.71000000
   O     78.83000000    53.50000000    47.04000000
   C     81.54000000    51.55000000    46.90000000
   O     82.92000000    51.47000000    46.62000000
   H     82.07000000    54.60000000    45.97000000
   H     81.96000000    53.46000000    47.66000000
   H     80.95000000    51.11000000    46.10000000
   H     81.36000000    50.99000000    47.81000000
   H     83.10000000    51.52000000    45.68000000
   N     79.82000000    52.99000000    49.02000000
   C     78.66000000    53.13000000    49.87000000
   C     78.60000000    54.47000000    50.59000000
   O     79.62000000    55.12000000    50.81000000
   C     78.57000000    51.92000000    50.80000000
   H     80.69000000    52.74000000    49.48000000
   H     77.74000000    53.15000000    49.30000000
   H     79.49000000    51.87000000    51.37000000
   H     77.58000000    51.98000000    51.26000000
   H     78.47000000    51.04000000    50.16000000
   N     77.38000000    54.92000000    50.92000000
   C     77.11000000    56.30000000    51.24000000
   C     77.72000000    57.37000000    50.35000000
   O     78.27000000    58.37000000    50.81000000
   C     77.27000000    56.51000000    52.75000000
   H     76.58000000    54.37000000    50.65000000
   H     76.05000000    56.56000000    51.18000000
   H     76.72000000    55.73000000    53.27000000
   H     78.32000000    56.46000000    53.04000000
   H     76.89000000    57.44000000    53.16000000
   N     77.59000000    57.20000000    49.03000000
   C     77.91000000    58.22000000    48.05000000
   C     76.72000000    58.47000000    47.13000000
   O     76.57000000    59.65000000    46.83000000
   C     79.13000000    57.73000000    47.28000000
   C     80.00000000    58.83000000    46.69000000
   C     80.70000000    59.63000000    47.79000000
   O     80.58000000    60.87000000    47.81000000
   O     81.36000000    59.00000000    48.64000000
   H     77.15000000    56.35000000    48.72000000
   H     78.02000000    59.21000000    48.50000000
   H     78.88000000    57.04000000    46.47000000
   H     79.79000000    57.17000000    47.95000000
   H     79.38000000    59.47000000    46.06000000
   H     80.72000000    58.49000000    45.94000000
   N     75.89000000    57.49000000    46.78000000
   C     74.66000000    57.68000000    46.04000000
   H     73.91500000    58.14200000    46.68800000
   H     74.84700000    58.32700000    45.18300000
   H     74.29100000    56.71500000    45.69300000
   H     76.16000000    56.52000000    46.91000000
  Ca     82.56000000    61.30000000    49.57000000
   O     83.90000000    63.15000000    50.81000000
   H     84.79000000    63.50000000    50.74000000
   H     83.45000000    63.79000000    51.37000000
   O     85.17000000    60.48000000    49.64000000
   H     85.96000000    60.39000000    50.17000000
   H     85.47000000    60.34000000    48.74000000
   O     82.31000000    63.47000000    48.02000000
   H     83.11000000    63.68000000    47.53000000
   H     81.62000000    63.43000000    47.36000000
   O     80.81000000    63.02000000    50.73000000
   H     80.31000000    63.80000000    50.51000000
   H     80.46000000    62.74000000    51.57000000
   O     82.53000000    59.88000000    51.82000000
   H     82.90000000    59.51000000    52.62000000
   H     81.59000000    59.92000000    51.98000000

Ca 1.00



