%chk=loop4.holoCaM-CaMKII.run54.water2.chk
%nprocshared=20
%mem=10GB
%nosave
#b3lyp/svp scf=(tight,noincore,xqc) Test 
#IOP(5/87=12) Density=Current Pop=(MK,readradii) iop(6/33=2) iop(6/42=6)

loop4.holoCaM-CaMKII.run54.water2 

   -3  1 
   C     42.13000000    62.94000000    17.73000000
   C     43.48000000    62.37000000    18.13000000
   O     43.71000000    62.28000000    19.34000000
   H     41.41900000    62.79300000    18.54300000
   H     42.23100000    64.00600000    17.52500000
   H     41.77000000    62.43000000    16.83600000
   N     44.44000000    62.10000000    17.24000000
   C     45.79000000    61.68000000    17.53000000
   C     46.42000000    62.94000000    18.10000000
   O     46.57000000    63.94000000    17.40000000
   C     46.50000000    61.17000000    16.28000000
   C     47.91000000    60.69000000    16.57000000
   O     48.73000000    60.48000000    15.65000000
   O     48.28000000    60.61000000    17.77000000
   H     44.15000000    62.25000000    16.29000000
   H     45.82000000    60.87000000    18.27000000
   H     46.65000000    61.97000000    15.55000000
   H     45.92000000    60.36000000    15.83000000
   N     46.98000000    62.85000000    19.31000000
   C     47.50000000    64.03000000    19.97000000
   C     48.99000000    64.17000000    19.71000000
   O     49.47000000    65.29000000    19.51000000
   C     47.08000000    63.97000000    21.44000000
   C     45.58000000    64.21000000    21.59000000
   C     47.83000000    65.00000000    22.29000000
   C     45.01000000    64.44000000    22.99000000
   H     47.20000000    61.98000000    19.78000000
   H     47.15000000    64.95000000    19.50000000
   H     47.25000000    63.03000000    21.95000000
   H     45.13000000    63.41000000    21.00000000
   H     45.27000000    65.05000000    20.97000000
   H     47.71000000    64.76000000    23.35000000
   H     48.90000000    64.80000000    22.22000000
   H     47.51000000    66.01000000    22.05000000
   H     45.48000000    65.30000000    23.45000000
   H     43.94000000    64.60000000    22.87000000
   H     45.23000000    63.56000000    23.60000000
   N     49.77000000    63.09000000    19.70000000
   C     51.21000000    63.18000000    19.66000000
   C     51.81000000    62.96000000    18.28000000
   O     52.99000000    63.26000000    18.12000000
   C     51.81000000    62.36000000    20.80000000
   C     51.20000000    60.98000000    21.02000000
   O     50.49000000    60.48000000    20.12000000
   O     51.48000000    60.39000000    22.09000000
   H     49.37000000    62.16000000    19.76000000
   H     51.51000000    64.19000000    19.92000000
   H     51.66000000    62.81000000    21.77000000
   H     52.90000000    62.32000000    20.67000000
   N     51.09000000    62.54000000    17.23000000
   C     51.61000000    62.38000000    15.89000000
   C     52.23000000    61.05000000    15.48000000
   O     53.33000000    61.11000000    14.92000000
   H     50.25000000    62.01000000    17.42000000
   H     52.33000000    63.19000000    15.76000000
   H     50.80000000    62.55000000    15.18000000
   N     51.60000000    59.92000000    15.80000000
   C     51.95000000    58.57000000    15.40000000
   C     51.12000000    57.93000000    14.29000000
   O     51.50000000    56.95000000    13.65000000
   C     52.20000000    57.71000000    16.63000000
   C     51.12000000    57.81000000    17.70000000
   O     51.42000000    58.24000000    18.83000000
   O     49.97000000    57.48000000    17.35000000
   H     50.69000000    60.01000000    16.24000000
   H     52.94000000    58.60000000    14.95000000
   H     53.21000000    58.01000000    16.92000000
   H     52.35000000    56.68000000    16.30000000
   N     49.97000000    58.54000000    14.00000000
   C     48.90000000    58.06000000    13.14000000
   C     47.72000000    57.40000000    13.83000000
   O     46.82000000    57.09000000    13.04000000
   H     49.73000000    59.31000000    14.60000000
   H     49.27000000    57.41000000    12.35000000
   H     48.58000000    58.96000000    12.61000000
   N     47.67000000    57.21000000    15.15000000
   C     46.63000000    56.44000000    15.81000000
   C     46.20000000    57.09000000    17.11000000
   O     46.97000000    57.87000000    17.67000000
   C     47.15000000    55.03000000    16.04000000
   C     47.11000000    54.14000000    14.80000000
   C     47.82000000    52.80000000    14.95000000
   N     48.77000000    52.57000000    14.04000000
   O     47.44000000    51.90000000    15.69000000
   H     48.43000000    57.35000000    15.79000000
   H     45.85000000    56.42000000    15.05000000
   H     46.56000000    54.62000000    16.86000000
   H     48.18000000    55.08000000    16.41000000
   H     47.53000000    54.70000000    13.96000000
   H     46.09000000    54.00000000    14.44000000
   H     48.92000000    53.28000000    13.34000000
   H     48.95000000    51.59000000    13.92000000
   N     45.00000000    56.75000000    17.59000000
   C     44.46000000    57.13000000    18.88000000
   C     44.47000000    56.03000000    19.93000000
   O     43.91000000    54.99000000    19.60000000
   C     43.06000000    57.70000000    18.67000000
   C     42.15000000    57.89000000    19.88000000
   C     43.18000000    59.01000000    17.90000000
   H     44.39000000    56.20000000    17.00000000
   H     45.12000000    57.94000000    19.21000000
   H     42.61000000    56.90000000    18.07000000
   H     41.14000000    58.08000000    19.53000000
   H     42.13000000    57.08000000    20.61000000
   H     42.53000000    58.78000000    20.39000000
   H     43.77000000    58.78000000    17.02000000
   H     42.17000000    59.23000000    17.56000000
   H     43.49000000    59.81000000    18.58000000
   N     44.95000000    56.21000000    21.16000000
   C     44.72000000    55.27000000    22.24000000
   C     43.52000000    55.61000000    23.11000000
   O     42.98000000    56.71000000    22.94000000
   C     46.04000000    55.00000000    22.95000000
   C     46.48000000    56.11000000    23.90000000
   N     47.33000000    57.05000000    23.49000000
   O     46.04000000    56.13000000    25.05000000
   H     45.44000000    57.06000000    21.38000000
   H     44.32000000    54.41000000    21.69000000
   H     46.87000000    54.75000000    22.29000000
   H     45.87000000    54.11000000    23.56000000
   H     47.55000000    57.18000000    22.52000000
   H     47.74000000    57.67000000    24.18000000
   N     43.17000000    54.87000000    24.16000000
   C     42.05000000    55.22000000    25.01000000
   C     42.27000000    56.59000000    25.63000000
   O     41.33000000    57.39000000    25.68000000
   C     41.74000000    54.16000000    26.06000000
   C     40.53000000    54.36000000    26.94000000
   C     39.27000000    54.58000000    26.37000000
   C     40.61000000    54.33000000    28.34000000
   C     38.13000000    54.69000000    27.17000000
   C     39.47000000    54.42000000    29.15000000
   C     38.21000000    54.68000000    28.58000000
   O     37.08000000    54.67000000    29.34000000
   H     43.54000000    53.93000000    24.16000000
   H     41.20000000    55.34000000    24.34000000
   H     42.64000000    54.06000000    26.66000000
   H     41.50000000    53.20000000    25.58000000
   H     39.31000000    54.65000000    25.29000000
   H     41.53000000    54.19000000    28.87000000
   H     37.22000000    54.97000000    26.66000000
   H     39.53000000    54.35000000    30.22000000
   H     37.36000000    54.90000000    30.23000000
   N     43.48000000    56.95000000    26.08000000
   C     43.65000000    58.18000000    26.83000000
   C     43.58000000    59.36000000    25.87000000
   O     43.43000000    60.52000000    26.25000000
   C     44.97000000    58.32000000    27.58000000
   C     45.20000000    57.28000000    28.68000000
   C     44.08000000    57.07000000    29.69000000
   O     43.40000000    58.03000000    30.12000000
   O     43.99000000    55.91000000    30.15000000
   H     44.21000000    56.26000000    26.11000000
   H     42.79000000    58.26000000    27.50000000
   H     45.08000000    59.32000000    28.00000000
   H     45.73000000    58.31000000    26.80000000
   H     46.07000000    57.69000000    29.20000000
   H     45.52000000    56.36000000    28.20000000
   N     43.83000000    59.15000000    24.58000000
   C     43.50000000    60.16000000    23.59000000
   C     42.03000000    60.25000000    23.22000000
   O     41.48000000    61.34000000    23.13000000
   C     44.41000000    60.06000000    22.37000000
   C     45.91000000    60.32000000    22.57000000
   C     46.78000000    59.84000000    21.41000000
   O     47.76000000    60.53000000    21.09000000
   O     46.78000000    58.70000000    20.90000000
   H     44.02000000    58.21000000    24.26000000
   H     43.70000000    61.15000000    24.00000000
   H     44.00000000    60.77000000    21.66000000
   H     44.34000000    59.02000000    22.05000000
   H     46.24000000    59.88000000    23.51000000
   H     46.03000000    61.39000000    22.71000000
   N     41.24000000    59.17000000    23.31000000
   C     39.80000000    59.12000000    23.14000000
   H     39.35800000    60.04400000    23.51300000
   H     39.56200000    59.00500000    22.08200000
   H     39.39700000    58.27500000    23.69800000
   H     41.67000000    58.30000000    23.56000000
  Ca     48.81000000    58.73000000    19.37000000
   O     49.54000000    58.33000000    21.99000000
   H     49.39000000    57.93000000    22.85000000
   H     50.20000000    59.00000000    22.15000000
   O     48.58000000    56.19000000    20.22000000
   H     49.41000000    55.84000000    20.53000000
   H     48.16000000    55.45000000    19.77000000

Ca 1.00



