%chk=loop4.holoCaM.run21.water2.chk
%nprocshared=20
%mem=10GB
%nosave
#b3lyp/svp scf=(tight,noincore,xqc) Test 
#IOP(5/87=12) Density=Current Pop=(MK,readradii) iop(6/33=2) iop(6/42=6)

loop4.holoCaM.run21.water2 

   -3  1 
   C     84.07000000    25.68000000    13.56000000
   C     84.96000000    26.33000000    12.51000000
   O     84.54000000    27.39000000    12.04000000
   H     83.10200000    25.44200000    13.11800000
   H     84.54000000    24.76400000    13.91900000
   H     83.92900000    26.36800000    14.39400000
   N     86.16000000    25.79000000    12.34000000
   C     87.10000000    26.30000000    11.36000000
   C     86.84000000    25.78000000     9.95000000
   O     86.72000000    24.59000000     9.66000000
   C     88.50000000    25.84000000    11.75000000
   C     89.56000000    26.12000000    10.69000000
   O     90.47000000    25.26000000    10.57000000
   O     89.56000000    27.19000000    10.04000000
   H     86.38000000    24.90000000    12.78000000
   H     87.15000000    27.39000000    11.36000000
   H     88.50000000    24.77000000    11.97000000
   H     88.84000000    26.40000000    12.62000000
   N     86.77000000    26.77000000     9.06000000
   C     86.47000000    26.55000000     7.66000000
   C     87.64000000    26.68000000     6.70000000
   O     87.45000000    26.61000000     5.49000000
   C     85.26000000    27.26000000     7.08000000
   C     85.37000000    28.77000000     6.86000000
   C     84.07000000    26.98000000     7.99000000
   C     84.04000000    29.45000000     6.55000000
   H     86.93000000    27.70000000     9.43000000
   H     86.08000000    25.53000000     7.59000000
   H     84.96000000    26.86000000     6.11000000
   H     86.06000000    28.86000000     6.02000000
   H     85.78000000    29.33000000     7.70000000
   H     84.00000000    25.93000000     8.26000000
   H     84.21000000    27.56000000     8.90000000
   H     83.11000000    27.31000000     7.58000000
   H     83.46000000    28.98000000     5.76000000
   H     83.50000000    29.49000000     7.49000000
   H     84.31000000    30.45000000     6.21000000
   N     88.89000000    26.82000000     7.16000000
   C     90.04000000    27.10000000     6.32000000
   C     91.33000000    26.42000000     6.76000000
   O     92.33000000    26.46000000     6.05000000
   C     90.16000000    28.60000000     6.12000000
   C     90.24000000    29.41000000     7.40000000
   O     91.19000000    29.23000000     8.20000000
   O     89.34000000    30.22000000     7.71000000
   H     89.02000000    26.97000000     8.15000000
   H     89.84000000    26.64000000     5.36000000
   H     89.26000000    28.89000000     5.57000000
   H     91.02000000    28.90000000     5.52000000
   N     91.31000000    25.80000000     7.94000000
   C     92.37000000    24.84000000     8.17000000
   C     93.57000000    25.37000000     8.94000000
   O     94.68000000    24.87000000     8.75000000
   H     90.65000000    25.99000000     8.69000000
   H     92.68000000    24.33000000     7.26000000
   H     92.01000000    24.03000000     8.80000000
   N     93.30000000    26.36000000     9.79000000
   C     94.25000000    26.89000000    10.75000000
   C     93.83000000    26.53000000    12.17000000
   O     94.64000000    26.76000000    13.06000000
   C     94.57000000    28.37000000    10.53000000
   C     93.41000000    29.27000000    10.92000000
   O     93.70000000    30.45000000    11.22000000
   O     92.23000000    28.86000000    11.03000000
   H     92.36000000    26.73000000     9.77000000
   H     95.17000000    26.37000000    10.53000000
   H     94.83000000    28.62000000     9.50000000
   H     95.34000000    28.59000000    11.26000000
   N     92.69000000    25.87000000    12.38000000
   C     92.21000000    25.48000000    13.69000000
   C     91.97000000    26.69000000    14.57000000
   O     91.80000000    26.43000000    15.75000000
   H     92.09000000    25.82000000    11.56000000
   H     92.97000000    24.81000000    14.10000000
   H     91.32000000    24.84000000    13.65000000
   N     91.77000000    27.90000000    14.03000000
   C     91.29000000    29.06000000    14.76000000
   C     90.03000000    29.62000000    14.11000000
   O     89.60000000    29.18000000    13.04000000
   C     92.47000000    30.02000000    14.68000000
   C     93.65000000    29.41000000    15.45000000
   C     94.81000000    30.38000000    15.63000000
   N     95.77000000    30.00000000    16.47000000
   O     94.75000000    31.52000000    15.16000000
   H     91.99000000    28.03000000    13.05000000
   H     91.10000000    28.78000000    15.79000000
   H     92.22000000    30.96000000    15.15000000
   H     92.81000000    30.25000000    13.67000000
   H     93.89000000    28.44000000    15.03000000
   H     93.34000000    29.24000000    16.48000000
   H     95.77000000    29.08000000    16.89000000
   H     96.55000000    30.64000000    16.55000000
   N     89.38000000    30.62000000    14.70000000
   C     88.22000000    31.31000000    14.17000000
   C     88.41000000    32.81000000    14.01000000
   O     88.68000000    33.56000000    14.95000000
   C     86.90000000    30.84000000    14.77000000
   C     86.77000000    29.34000000    14.54000000
   C     86.76000000    31.35000000    16.20000000
   H     89.73000000    30.93000000    15.60000000
   H     88.10000000    31.00000000    13.13000000
   H     86.03000000    31.27000000    14.26000000
   H     86.97000000    29.19000000    13.48000000
   H     87.38000000    28.82000000    15.27000000
   H     85.73000000    29.03000000    14.62000000
   H     87.72000000    31.47000000    16.70000000
   H     86.35000000    32.36000000    16.28000000
   H     86.11000000    30.80000000    16.89000000
   N     88.21000000    33.34000000    12.81000000
   C     88.08000000    34.76000000    12.53000000
   C     86.67000000    35.27000000    12.81000000
   O     85.79000000    34.44000000    13.05000000
   C     88.42000000    35.04000000    11.07000000
   C     87.30000000    34.90000000    10.05000000
   N     86.90000000    33.68000000     9.67000000
   O     86.70000000    35.86000000     9.58000000
   H     88.06000000    32.65000000    12.08000000
   H     88.70000000    35.35000000    13.20000000
   H     89.26000000    34.39000000    10.82000000
   H     88.82000000    36.05000000    10.93000000
   H     87.48000000    32.92000000    10.00000000
   H     86.50000000    33.55000000     8.76000000
   N     86.30000000    36.55000000    12.78000000
   C     85.02000000    36.91000000    13.35000000
   C     83.77000000    36.40000000    12.65000000
   O     82.72000000    36.11000000    13.22000000
   C     84.98000000    38.44000000    13.43000000
   C     83.66000000    38.92000000    13.97000000
   C     83.44000000    38.90000000    15.36000000
   C     82.63000000    39.37000000    13.14000000
   C     82.18000000    39.28000000    15.83000000
   C     81.38000000    39.74000000    13.64000000
   C     81.10000000    39.68000000    15.02000000
   O     79.88000000    40.12000000    15.45000000
   H     87.00000000    37.27000000    12.66000000
   H     85.00000000    36.48000000    14.35000000
   H     85.07000000    38.83000000    12.42000000
   H     85.78000000    38.86000000    14.04000000
   H     84.18000000    38.73000000    16.12000000
   H     82.76000000    39.50000000    12.07000000
   H     82.02000000    39.27000000    16.90000000
   H     80.57000000    40.11000000    13.03000000
   H     79.33000000    40.41000000    14.72000000
   N     83.81000000    36.19000000    11.33000000
   C     82.76000000    35.66000000    10.49000000
   C     82.64000000    34.16000000    10.75000000
   O     81.53000000    33.65000000    10.65000000
   C     82.85000000    36.04000000     9.01000000
   C     81.58000000    36.04000000     8.17000000
   C     81.73000000    36.63000000     6.78000000
   O     82.06000000    35.91000000     5.81000000
   O     81.41000000    37.82000000     6.56000000
   H     84.74000000    36.39000000    10.99000000
   H     81.80000000    36.07000000    10.80000000
   H     83.49000000    35.31000000     8.51000000
   H     83.30000000    37.02000000     8.86000000
   H     80.83000000    36.67000000     8.66000000
   H     81.21000000    35.01000000     8.08000000
   N     83.63000000    33.41000000    11.23000000
   C     83.48000000    32.08000000    11.79000000
   C     83.02000000    32.12000000    13.23000000
   O     82.25000000    31.23000000    13.59000000
   C     84.79000000    31.29000000    11.83000000
   C     85.42000000    30.87000000    10.50000000
   C     86.90000000    30.55000000    10.49000000
   O     87.79000000    31.38000000    10.78000000
   O     87.26000000    29.41000000    10.14000000
   H     84.49000000    33.88000000    11.47000000
   H     82.77000000    31.51000000    11.19000000
   H     84.75000000    30.39000000    12.44000000
   H     85.48000000    31.87000000    12.44000000
   H     85.31000000    31.71000000     9.82000000
   H     84.81000000    30.05000000    10.12000000
   N     83.43000000    33.09000000    14.06000000
   C     83.01000000    33.32000000    15.42000000
   H     81.97900000    32.98700000    15.54300000
   H     83.65500000    32.76200000    16.09900000
   H     83.07700000    34.38400000    15.64600000
   H     84.05000000    33.79000000    13.70000000
  Ca     89.95000000    29.77000000    10.34000000
   O     90.56000000    32.29000000     9.34000000
   H     89.80000000    32.10000000     8.79000000
   H     91.24000000    32.56000000     8.72000000
   O     91.52000000    31.80000000    11.79000000
   H     91.47000000    32.42000000    11.07000000
   H     92.37000000    31.37000000    11.68000000

Ca 1.00



