%chk=loop4.holoCaM.run64.water2.chk
%nprocshared=20
%mem=10GB
%nosave
#b3lyp/svp scf=(tight,noincore,xqc) Test 
#IOP(5/87=12) Density=Current Pop=(MK,readradii) iop(6/33=2) iop(6/42=6)

loop4.holoCaM.run64.water2 

   -3  1 
   C     90.18000000    57.91000000    24.87000000
   C     89.75000000    59.34000000    24.58000000
   O     89.38000000    59.71000000    23.47000000
   H     91.11900000    57.91900000    25.42300000
   H     89.41300000    57.41300000    25.46400000
   H     90.31700000    57.37400000    23.93100000
   N     89.81000000    60.23000000    25.57000000
   C     89.77000000    61.66000000    25.34000000
   C     90.86000000    62.25000000    24.45000000
   O     91.99000000    61.78000000    24.44000000
   C     89.76000000    62.34000000    26.71000000
   C     90.07000000    63.83000000    26.61000000
   O     91.17000000    64.26000000    26.99000000
   O     89.16000000    64.58000000    26.19000000
   H     89.96000000    59.93000000    26.52000000
   H     88.78000000    61.83000000    24.92000000
   H     90.54000000    61.98000000    27.38000000
   H     88.86000000    62.23000000    27.32000000
   N     90.55000000    63.29000000    23.67000000
   C     91.49000000    64.00000000    22.83000000
   C     91.55000000    65.52000000    22.90000000
   O     92.39000000    66.10000000    22.21000000
   C     91.20000000    63.51000000    21.42000000
   C     89.77000000    63.63000000    20.88000000
   C     91.72000000    62.10000000    21.14000000
   C     89.25000000    65.05000000    20.71000000
   H     89.61000000    63.68000000    23.71000000
   H     92.54000000    63.84000000    23.07000000
   H     91.78000000    64.12000000    20.73000000
   H     89.10000000    62.95000000    21.39000000
   H     89.83000000    63.27000000    19.85000000
   H     92.80000000    62.12000000    21.30000000
   H     91.28000000    61.45000000    21.89000000
   H     91.49000000    61.88000000    20.10000000
   H     89.95000000    65.77000000    20.29000000
   H     88.36000000    65.11000000    20.07000000
   H     88.85000000    65.38000000    21.67000000
   N     90.81000000    66.14000000    23.82000000
   C     90.84000000    67.57000000    24.07000000
   C     91.12000000    67.94000000    25.52000000
   O     91.57000000    69.06000000    25.73000000
   C     89.49000000    68.21000000    23.74000000
   C     88.34000000    67.44000000    24.37000000
   O     87.64000000    66.61000000    23.75000000
   O     88.25000000    67.52000000    25.61000000
   H     90.24000000    65.63000000    24.48000000
   H     91.52000000    68.16000000    23.46000000
   H     89.36000000    68.36000000    22.67000000
   H     89.46000000    69.22000000    24.15000000
   N     91.04000000    67.06000000    26.52000000
   C     91.83000000    67.16000000    27.73000000
   C     91.05000000    67.24000000    29.03000000
   O     91.60000000    67.08000000    30.12000000
   H     90.61000000    66.16000000    26.33000000
   H     92.42000000    68.08000000    27.66000000
   H     92.53000000    66.32000000    27.65000000
   N     89.72000000    67.32000000    28.94000000
   C     88.90000000    67.07000000    30.11000000
   C     88.96000000    65.64000000    30.63000000
   O     88.57000000    65.31000000    31.75000000
   C     87.48000000    67.60000000    29.98000000
   C     86.59000000    66.87000000    28.99000000
   O     85.39000000    67.20000000    28.95000000
   O     87.04000000    65.93000000    28.29000000
   H     89.38000000    67.37000000    27.99000000
   H     89.34000000    67.51000000    31.01000000
   H     87.61000000    68.64000000    29.68000000
   H     86.98000000    67.58000000    30.95000000
   N     89.51000000    64.72000000    29.84000000
   C     89.67000000    63.31000000    30.14000000
   C     88.40000000    62.48000000    30.26000000
   O     88.40000000    61.42000000    30.89000000
   H     89.75000000    65.04000000    28.91000000
   H     90.19000000    63.29000000    31.10000000
   H     90.38000000    62.94000000    29.41000000
   N     87.29000000    63.01000000    29.76000000
   C     86.04000000    62.30000000    29.55000000
   C     85.72000000    62.38000000    28.07000000
   O     86.39000000    63.10000000    27.34000000
   C     84.88000000    62.85000000    30.37000000
   C     85.19000000    62.81000000    31.87000000
   C     83.94000000    62.89000000    32.73000000
   N     84.03000000    62.90000000    34.06000000
   O     82.82000000    62.90000000    32.22000000
   H     87.22000000    63.94000000    29.38000000
   H     86.23000000    61.24000000    29.75000000
   H     83.94000000    62.35000000    30.13000000
   H     84.82000000    63.88000000    30.04000000
   H     85.86000000    63.61000000    32.15000000
   H     85.54000000    61.80000000    32.07000000
   H     84.97000000    62.72000000    34.39000000
   H     83.18000000    62.96000000    34.60000000
   N     84.74000000    61.62000000    27.58000000
   C     84.42000000    61.55000000    26.17000000
   C     82.97000000    61.95000000    25.92000000
   O     82.02000000    61.58000000    26.61000000
   C     84.79000000    60.20000000    25.57000000
   C     86.29000000    59.93000000    25.66000000
   C     83.96000000    58.97000000    25.94000000
   H     84.05000000    61.19000000    28.19000000
   H     85.03000000    62.25000000    25.61000000
   H     84.66000000    60.23000000    24.49000000
   H     86.64000000    59.43000000    24.75000000
   H     86.79000000    60.89000000    25.70000000
   H     86.58000000    59.34000000    26.53000000
   H     84.09000000    58.22000000    25.16000000
   H     84.38000000    58.72000000    26.92000000
   H     82.92000000    59.27000000    25.95000000
   N     82.84000000    62.87000000    24.97000000
   C     81.59000000    63.27000000    24.37000000
   C     81.08000000    62.33000000    23.28000000
   O     81.84000000    61.43000000    22.93000000
   C     81.81000000    64.69000000    23.86000000
   C     82.18000000    64.84000000    22.39000000
   N     83.49000000    64.83000000    22.12000000
   O     81.33000000    64.99000000    21.51000000
   H     83.64000000    63.36000000    24.59000000
   H     80.84000000    63.30000000    25.16000000
   H     82.51000000    65.20000000    24.51000000
   H     80.86000000    65.20000000    23.96000000
   H     84.15000000    64.80000000    22.88000000
   H     83.89000000    64.91000000    21.19000000
   N     80.00000000    62.60000000    22.54000000
   C     79.43000000    61.67000000    21.59000000
   C     80.25000000    61.50000000    20.33000000
   O     80.61000000    60.40000000    19.91000000
   C     78.13000000    62.27000000    21.05000000
   C     77.49000000    61.64000000    19.84000000
   C     76.79000000    60.43000000    19.94000000
   C     77.68000000    62.23000000    18.59000000
   C     76.36000000    59.82000000    18.76000000
   C     77.07000000    61.71000000    17.44000000
   C     76.36000000    60.49000000    17.52000000
   O     75.81000000    59.85000000    16.46000000
   H     79.46000000    63.33000000    22.98000000
   H     79.24000000    60.69000000    22.02000000
   H     78.28000000    63.33000000    20.83000000
   H     77.51000000    62.10000000    21.93000000
   H     76.68000000    59.99000000    20.92000000
   H     78.34000000    63.07000000    18.43000000
   H     75.96000000    58.81000000    18.81000000
   H     77.22000000    62.00000000    16.41000000
   H     75.84000000    60.44000000    15.70000000
   N     80.82000000    62.59000000    19.81000000
   C     81.71000000    62.58000000    18.66000000
   C     83.08000000    61.98000000    18.93000000
   O     83.69000000    61.56000000    17.95000000
   C     81.91000000    63.99000000    18.11000000
   C     80.66000000    64.75000000    17.66000000
   C     80.96000000    66.15000000    17.15000000
   O     80.63000000    67.07000000    17.92000000
   O     81.61000000    66.30000000    16.09000000
   H     80.47000000    63.48000000    20.12000000
   H     81.19000000    61.97000000    17.92000000
   H     82.68000000    63.95000000    17.34000000
   H     82.28000000    64.57000000    18.95000000
   H     79.99000000    64.85000000    18.51000000
   H     80.12000000    64.17000000    16.91000000
   N     83.49000000    61.88000000    20.20000000
   C     84.65000000    61.15000000    20.67000000
   C     84.36000000    59.67000000    20.80000000
   O     85.15000000    58.85000000    20.34000000
   C     85.22000000    61.67000000    21.99000000
   C     86.00000000    62.98000000    21.97000000
   C     86.22000000    63.53000000    23.37000000
   O     85.33000000    64.15000000    23.98000000
   O     87.31000000    63.44000000    23.97000000
   H     82.76000000    62.10000000    20.87000000
   H     85.50000000    61.43000000    20.05000000
   H     85.92000000    60.91000000    22.35000000
   H     84.42000000    61.80000000    22.71000000
   H     85.48000000    63.63000000    21.27000000
   H     86.95000000    62.69000000    21.53000000
   N     83.22000000    59.30000000    21.40000000
   C     82.67000000    57.99000000    21.69000000
   H     81.69500000    57.89200000    21.21300000
   H     83.34000000    57.22100000    21.30600000
   H     82.56000000    57.87200000    22.76800000
   H     82.66000000    60.07000000    21.74000000
  Ca     86.70000000    65.25000000    25.84000000
   O     84.37000000    65.31000000    27.32000000
   H     83.47000000    65.40000000    27.65000000
   H     84.90000000    65.85000000    27.91000000
   O     85.12000000    67.49000000    25.05000000
   H     85.16000000    68.18000000    24.38000000
   H     84.73000000    67.91000000    25.81000000

Ca 1.00



