%chk=loop4.holoCaM-CaMKII.run70.water1.chk
%nprocshared=20
%mem=10GB
%nosave
#b3lyp/svp scf=(tight,noincore,xqc) Test 
#IOP(5/87=12) Density=Current Pop=(MK,readradii) iop(6/33=2) iop(6/42=6)

loop4.holoCaM-CaMKII.run70.water1 

   -3  1 
   C     32.84000000    35.04000000    -2.49700000
   C     33.72000000    34.15000000    -1.62700000
   O     34.36000000    34.52000000    -0.63700000
   H     31.93800000    35.30800000    -1.94700000
   H     33.38600000    35.94600000    -2.76100000
   H     32.56500000    34.50400000    -3.40500000
   N     33.87000000    32.89000000    -2.04700000
   C     34.53000000    31.83000000    -1.29700000
   C     36.04000000    31.96000000    -1.33700000
   O     36.72000000    31.60000000    -2.29700000
   C     34.07000000    30.46000000    -1.78700000
   C     34.61000000    29.36000000    -0.88700000
   O     34.21000000    28.19000000    -1.05700000
   O     35.45000000    29.71000000    -0.02700000
   H     33.31000000    32.61000000    -2.82700000
   H     34.20000000    31.94000000    -0.26700000
   H     34.45000000    30.25000000    -2.78700000
   H     32.99000000    30.39000000    -1.65700000
   N     36.60000000    32.46000000    -0.23700000
   C     38.04000000    32.59000000    -0.09700000
   C     38.88000000    31.35000000     0.18300000
   O     40.07000000    31.31000000    -0.09700000
   C     38.29000000    33.70000000     0.92300000
   C     38.15000000    33.13000000     2.33300000
   C     37.56000000    35.00000000     0.62300000
   C     38.58000000    34.18000000     3.35300000
   H     36.05000000    32.46000000     0.61300000
   H     38.42000000    32.94000000    -1.05700000
   H     39.32000000    34.03000000     0.83300000
   H     38.68000000    32.21000000     2.57300000
   H     37.08000000    33.01000000     2.51300000
   H     36.50000000    34.81000000     0.79300000
   H     37.82000000    35.75000000     1.38300000
   H     37.83000000    35.32000000    -0.38700000
   H     39.56000000    34.62000000     3.18300000
   H     37.78000000    34.92000000     3.46300000
   H     38.53000000    33.63000000     4.29300000
   N     38.25000000    30.27000000     0.64300000
   C     38.83000000    29.08000000     1.24300000
   C     38.52000000    27.78000000     0.52300000
   O     39.16000000    26.75000000     0.70300000
   C     38.51000000    28.95000000     2.73300000
   C     37.01000000    28.93000000     2.97300000
   O     36.31000000    27.94000000     2.63300000
   O     36.42000000    29.86000000     3.56300000
   H     37.24000000    30.21000000     0.55300000
   H     39.90000000    29.24000000     1.21300000
   H     38.93000000    29.77000000     3.32300000
   H     38.94000000    28.05000000     3.16300000
   N     37.54000000    27.75000000    -0.38700000
   C     37.37000000    26.62000000    -1.28700000
   C     36.40000000    25.54000000    -0.83700000
   O     36.36000000    24.50000000    -1.48700000
   H     37.01000000    28.58000000    -0.58700000
   H     38.36000000    26.19000000    -1.43700000
   H     37.02000000    27.13000000    -2.18700000
   N     35.60000000    25.72000000     0.22300000
   C     34.71000000    24.65000000     0.61300000
   C     33.32000000    24.67000000    -0.02700000
   O     32.45000000    23.88000000     0.32300000
   C     34.54000000    24.58000000     2.12300000
   C     33.85000000    25.81000000     2.69300000
   O     33.54000000    26.81000000     2.00300000
   O     33.55000000    25.70000000     3.89300000
   H     35.60000000    26.59000000     0.72300000
   H     35.13000000    23.69000000     0.32300000
   H     35.48000000    24.35000000     2.62300000
   H     33.86000000    23.78000000     2.41300000
   N     33.02000000    25.67000000    -0.86700000
   C     31.83000000    25.66000000    -1.69700000
   C     30.65000000    26.33000000    -1.00700000
   O     29.47000000    26.07000000    -1.27700000
   H     33.64000000    26.46000000    -0.99700000
   H     31.50000000    24.65000000    -1.89700000
   H     31.91000000    26.09000000    -2.69700000
   N     30.90000000    27.07000000     0.07300000
   C     29.99000000    27.54000000     1.09300000
   C     30.42000000    28.94000000     1.52300000
   O     31.53000000    29.08000000     2.04300000
   C     29.85000000    26.61000000     2.28300000
   C     29.30000000    25.20000000     2.03300000
   C     27.84000000    25.27000000     1.60300000
   N     27.49000000    24.33000000     0.73300000
   O     27.05000000    26.12000000     2.02300000
   H     31.86000000    27.27000000     0.31300000
   H     29.03000000    27.66000000     0.59300000
   H     29.14000000    27.08000000     2.96300000
   H     30.85000000    26.40000000     2.67300000
   H     29.36000000    24.65000000     2.97300000
   H     29.90000000    24.67000000     1.30300000
   H     28.23000000    23.89000000     0.20300000
   H     26.58000000    24.42000000     0.29300000
   N     29.58000000    29.96000000     1.36300000
   C     29.73000000    31.29000000     1.92300000
   C     29.26000000    31.46000000     3.36300000
   O     28.07000000    31.51000000     3.64300000
   C     29.10000000    32.24000000     0.91300000
   C     29.47000000    33.69000000     1.25300000
   C     29.47000000    32.01000000    -0.54700000
   H     28.70000000    29.83000000     0.89300000
   H     30.81000000    31.48000000     1.89300000
   H     28.03000000    32.03000000     1.02300000
   H     29.14000000    34.03000000     2.23300000
   H     30.53000000    33.90000000     1.11300000
   H     29.01000000    34.30000000     0.47300000
   H     29.05000000    31.04000000    -0.81700000
   H     28.99000000    32.73000000    -1.19700000
   H     30.53000000    31.93000000    -0.78700000
   N     30.27000000    31.56000000     4.23300000
   C     30.00000000    31.99000000     5.59300000
   C     29.89000000    33.50000000     5.74300000
   O     30.38000000    34.23000000     4.88300000
   C     31.02000000    31.30000000     6.49300000
   C     32.16000000    32.13000000     7.05300000
   N     33.32000000    32.12000000     6.39300000
   O     32.06000000    32.86000000     8.04300000
   H     31.21000000    31.44000000     3.89300000
   H     28.97000000    31.70000000     5.77300000
   H     31.52000000    30.54000000     5.88300000
   H     30.58000000    30.76000000     7.33300000
   H     33.31000000    31.66000000     5.50300000
   H     34.13000000    32.57000000     6.81300000
   N     29.50000000    33.95000000     6.93300000
   C     29.25000000    35.35000000     7.22300000
   C     30.43000000    36.28000000     6.94300000
   O     30.35000000    37.33000000     6.30300000
   C     28.76000000    35.59000000     8.64300000
   C     28.47000000    36.99000000     9.12300000
   C     27.50000000    37.73000000     8.43300000
   C     29.04000000    37.52000000    10.28300000
   C     27.14000000    39.01000000     8.86300000
   C     28.71000000    38.82000000    10.70300000
   C     27.73000000    39.56000000    10.01300000
   O     27.35000000    40.71000000    10.64300000
   H     29.05000000    33.31000000     7.57300000
   H     28.47000000    35.68000000     6.54300000
   H     29.58000000    35.25000000     9.27300000
   H     27.82000000    35.08000000     8.87300000
   H     27.03000000    37.35000000     7.53300000
   H     29.90000000    37.14000000    10.81300000
   H     26.37000000    39.56000000     8.33300000
   H     29.23000000    39.21000000    11.56300000
   H     27.85000000    40.87000000    11.44300000
   N     31.62000000    35.93000000     7.43300000
   C     32.84000000    36.71000000     7.27300000
   C     33.28000000    36.78000000     5.82300000
   O     34.09000000    37.61000000     5.40300000
   C     33.97000000    36.09000000     8.08300000
   C     33.82000000    36.05000000     9.60300000
   C     35.16000000    35.60000000    10.16300000
   O     35.37000000    34.46000000    10.62300000
   O     36.05000000    36.48000000    10.20300000
   H     31.75000000    35.05000000     7.90300000
   H     32.70000000    37.74000000     7.59300000
   H     34.93000000    36.46000000     7.71300000
   H     33.87000000    35.06000000     7.74300000
   H     32.95000000    35.50000000     9.95300000
   H     33.56000000    37.09000000     9.80300000
   N     32.85000000    35.87000000     4.94300000
   C     33.02000000    35.94000000     3.50300000
   C     31.96000000    36.79000000     2.80300000
   O     32.17000000    37.38000000     1.75300000
   C     33.07000000    34.53000000     2.92300000
   C     34.30000000    33.73000000     3.33300000
   C     33.97000000    32.30000000     2.95300000
   O     34.54000000    31.84000000     1.94300000
   O     33.19000000    31.58000000     3.61300000
   H     32.35000000    35.10000000     5.35300000
   H     34.02000000    36.32000000     3.30300000
   H     33.26000000    34.55000000     1.84300000
   H     32.16000000    33.99000000     3.15300000
   H     34.38000000    33.65000000     4.42300000
   H     35.20000000    34.10000000     2.84300000
   N     30.83000000    36.94000000     3.49300000
   C     29.70000000    37.67000000     2.94300000
   H     28.88000000    37.66500000     3.66100000
   H     29.99600000    38.69900000     2.73800000
   H     29.37500000    37.19400000     2.01800000
   H     30.70000000    36.28000000     4.25300000
  Ca     34.17000000    29.38000000     2.32000000
   O     33.73000000    28.47000000     4.72000000
   H     33.56000000    27.53000000     4.68000000
   H     33.85000000    28.65000000     5.65000000

Ca 1.00



