%chk=loop4.holoCaM.run19.water2.chk
%nprocshared=20
%mem=10GB
%nosave
#b3lyp/svp scf=(tight,noincore,xqc) Test 
#IOP(5/87=12) Density=Current Pop=(MK,readradii) iop(6/33=2) iop(6/42=6)

loop4.holoCaM.run19.water2 

   -3  1 
   C     64.91000000    24.33000000    18.15000000
   C     66.15000000    23.52000000    17.77000000
   O     66.49000000    23.49000000    16.59000000
   H     64.08100000    23.65100000    18.35000000
   H     65.12000000    24.92000000    19.04200000
   H     64.64400000    24.99500000    17.32800000
   N     66.79000000    22.81000000    18.70000000
   C     67.99000000    22.00000000    18.59000000
   C     67.94000000    21.09000000    17.38000000
   O     67.25000000    20.08000000    17.23000000
   C     68.24000000    21.23000000    19.88000000
   C     69.54000000    20.44000000    19.82000000
   O     69.54000000    19.35000000    20.43000000
   O     70.47000000    20.90000000    19.13000000
   H     66.47000000    22.91000000    19.65000000
   H     68.72000000    22.79000000    18.44000000
   H     67.43000000    20.50000000    19.97000000
   H     68.23000000    22.01000000    20.65000000
   N     68.89000000    21.36000000    16.48000000
   C     69.09000000    20.72000000    15.19000000
   C     69.89000000    19.44000000    15.30000000
   O     69.63000000    18.56000000    14.48000000
   C     69.42000000    21.69000000    14.05000000
   C     70.76000000    22.40000000    14.20000000
   C     68.29000000    22.69000000    13.86000000
   C     71.15000000    23.29000000    13.03000000
   H     69.52000000    22.15000000    16.60000000
   H     68.07000000    20.50000000    14.87000000
   H     69.45000000    21.06000000    13.16000000
   H     71.46000000    21.59000000    14.36000000
   H     70.81000000    23.04000000    15.09000000
   H     67.32000000    22.24000000    14.06000000
   H     68.43000000    23.45000000    14.64000000
   H     68.30000000    23.05000000    12.83000000
   H     70.43000000    24.10000000    12.93000000
   H     72.11000000    23.77000000    13.26000000
   H     71.28000000    22.69000000    12.13000000
   N     70.71000000    19.25000000    16.34000000
   C     71.81000000    18.32000000    16.19000000
   C     72.25000000    17.64000000    17.48000000
   O     73.41000000    17.25000000    17.61000000
   C     73.00000000    19.07000000    15.58000000
   C     73.45000000    20.37000000    16.22000000
   O     72.75000000    20.86000000    17.13000000
   O     74.57000000    20.83000000    15.91000000
   H     70.75000000    19.94000000    17.08000000
   H     71.60000000    17.44000000    15.59000000
   H     72.80000000    19.31000000    14.53000000
   H     73.84000000    18.39000000    15.47000000
   N     71.38000000    17.66000000    18.49000000
   C     71.35000000    16.79000000    19.65000000
   C     72.30000000    17.17000000    20.78000000
   O     72.34000000    16.34000000    21.69000000
   H     70.56000000    18.15000000    18.18000000
   H     71.61000000    15.77000000    19.36000000
   H     70.34000000    16.78000000    20.07000000
   N     73.01000000    18.29000000    20.82000000
   C     73.68000000    18.79000000    22.01000000
   C     72.74000000    19.15000000    23.15000000
   O     73.18000000    19.41000000    24.27000000
   C     74.55000000    19.99000000    21.67000000
   C     73.90000000    21.01000000    20.74000000
   O     74.49000000    21.39000000    19.71000000
   O     72.76000000    21.45000000    21.00000000
   H     72.85000000    18.98000000    20.10000000
   H     74.32000000    17.98000000    22.35000000
   H     75.44000000    19.58000000    21.19000000
   H     74.91000000    20.56000000    22.53000000
   N     71.43000000    19.19000000    22.93000000
   C     70.49000000    19.68000000    23.92000000
   C     70.50000000    21.18000000    24.22000000
   O     70.12000000    21.58000000    25.32000000
   H     71.14000000    18.91000000    22.00000000
   H     70.75000000    19.10000000    24.81000000
   H     69.48000000    19.39000000    23.66000000
   N     71.05000000    21.99000000    23.32000000
   C     71.25000000    23.42000000    23.36000000
   C     71.11000000    24.25000000    22.09000000
   O     71.01000000    23.67000000    21.00000000
   C     72.64000000    23.65000000    23.94000000
   C     72.94000000    23.26000000    25.38000000
   C     74.28000000    23.78000000    25.89000000
   N     75.40000000    23.09000000    25.67000000
   O     74.37000000    24.81000000    26.55000000
   H     71.41000000    21.50000000    22.51000000
   H     70.60000000    23.91000000    24.09000000
   H     72.82000000    24.72000000    23.87000000
   H     73.49000000    23.32000000    23.35000000
   H     73.01000000    22.17000000    25.40000000
   H     72.20000000    23.71000000    26.04000000
   H     75.24000000    22.16000000    25.30000000
   H     76.21000000    23.26000000    26.25000000
   N     71.17000000    25.58000000    22.17000000
   C     71.14000000    26.36000000    20.96000000
   C     72.33000000    27.28000000    20.72000000
   O     72.82000000    27.90000000    21.66000000
   C     69.85000000    27.18000000    20.90000000
   C     68.64000000    26.27000000    20.69000000
   C     69.43000000    28.17000000    21.99000000
   H     71.25000000    26.06000000    23.06000000
   H     71.11000000    25.69000000    20.10000000
   H     69.93000000    27.79000000    20.00000000
   H     68.88000000    25.44000000    20.03000000
   H     68.19000000    25.87000000    21.60000000
   H     67.90000000    26.90000000    20.19000000
   H     69.77000000    27.85000000    22.98000000
   H     69.93000000    29.10000000    21.74000000
   H     68.35000000    28.31000000    21.94000000
   N     72.85000000    27.43000000    19.50000000
   C     73.75000000    28.48000000    19.09000000
   C     73.04000000    29.67000000    18.45000000
   O     71.84000000    29.62000000    18.17000000
   C     74.80000000    27.77000000    18.23000000
   C     74.41000000    27.82000000    16.76000000
   N     73.94000000    26.72000000    16.17000000
   O     74.80000000    28.79000000    16.12000000
   H     72.58000000    26.65000000    18.90000000
   H     74.25000000    28.86000000    19.97000000
   H     74.89000000    26.75000000    18.60000000
   H     75.79000000    28.14000000    18.50000000
   H     73.62000000    25.91000000    16.69000000
   H     73.85000000    26.76000000    15.17000000
   N     73.78000000    30.73000000    18.14000000
   C     73.12000000    31.96000000    17.74000000
   C     72.11000000    31.83000000    16.61000000
   O     71.03000000    32.41000000    16.74000000
   C     74.05000000    33.17000000    17.61000000
   C     73.48000000    34.52000000    17.21000000
   C     72.89000000    35.40000000    18.12000000
   C     73.51000000    34.87000000    15.86000000
   C     72.32000000    36.61000000    17.70000000
   C     73.09000000    36.14000000    15.44000000
   C     72.47000000    37.00000000    16.35000000
   O     71.93000000    38.16000000    15.87000000
   H     74.79000000    30.72000000    18.16000000
   H     72.54000000    32.31000000    18.59000000
   H     74.84000000    32.89000000    16.92000000
   H     74.60000000    33.28000000    18.54000000
   H     73.03000000    35.14000000    19.16000000
   H     73.85000000    34.18000000    15.10000000
   H     71.78000000    37.22000000    18.41000000
   H     73.15000000    36.37000000    14.38000000
   H     71.89000000    38.17000000    14.91000000
   N     72.42000000    31.16000000    15.50000000
   C     71.40000000    30.97000000    14.48000000
   C     70.22000000    30.09000000    14.88000000
   O     69.13000000    30.42000000    14.42000000
   C     72.14000000    30.31000000    13.32000000
   C     73.05000000    31.25000000    12.54000000
   C     73.81000000    30.47000000    11.48000000
   O     73.59000000    30.68000000    10.27000000
   O     74.88000000    29.94000000    11.85000000
   H     73.32000000    30.72000000    15.36000000
   H     71.07000000    31.94000000    14.12000000
   H     71.39000000    29.97000000    12.60000000
   H     72.59000000    29.43000000    13.77000000
   H     73.82000000    31.67000000    13.19000000
   H     72.40000000    31.96000000    12.04000000
   N     70.36000000    29.06000000    15.71000000
   C     69.23000000    28.39000000    16.33000000
   C     68.43000000    29.35000000    17.19000000
   O     67.22000000    29.21000000    17.35000000
   C     69.74000000    27.17000000    17.09000000
   C     70.23000000    25.99000000    16.26000000
   C     70.92000000    24.88000000    17.04000000
   O     71.99000000    25.10000000    17.65000000
   O     70.44000000    23.74000000    17.23000000
   H     71.29000000    28.83000000    16.04000000
   H     68.52000000    28.15000000    15.53000000
   H     68.98000000    26.83000000    17.80000000
   H     70.57000000    27.55000000    17.69000000
   H     70.85000000    26.44000000    15.48000000
   H     69.30000000    25.65000000    15.82000000
   N     69.09000000    30.28000000    17.89000000
   C     68.51000000    31.24000000    18.80000000
   H     67.50700000    30.91600000    19.07800000
   H     69.12900000    31.31300000    19.69400000
   H     68.45500000    32.21400000    18.31500000
   H     70.10000000    30.21000000    17.98000000
  Ca     72.29000000    22.64000000    18.74000000
   O     74.43000000    23.25000000    17.11000000
   H     75.14000000    23.87000000    16.95000000
   H     74.67000000    22.47000000    16.61000000
   O     74.16000000    24.13000000    19.95000000
   H     74.32000000    24.64000000    20.74000000
   H     74.94000000    23.59000000    19.84000000

Ca 1.00



