%chk=loop2.apoCaM-CA-Ng.Init31.run64.water3.chk
%nprocshared=20
%mem=10GB
%nosave
#b3lyp/svp scf=(tight,noincore,xqc) Test 
#IOP(5/87=12) Density=Current Pop=(MK,readradii) iop(6/33=2) iop(6/42=6)

loop2.apoCaM-CA-Ng.Init31.run64.water3 

   -2  1 
   C     96.08000000    73.39000000    -2.96000000
   C     95.01000000    72.40000000    -2.51000000
   O     95.20000000    71.70000000    -1.52000000
   H     96.98500000    72.84700000    -3.23300000
   H     95.71800000    73.95000000    -3.82300000
   H     96.30300000    74.08000000    -2.14600000
   N     93.81000000    72.35000000    -3.10000000
   C     93.31000000    73.09000000    -4.24000000
   C     92.53000000    72.11000000    -5.10000000
   O     91.68000000    71.39000000    -4.58000000
   C     92.33000000    74.19000000    -3.83000000
   C     91.23000000    73.87000000    -2.82000000
   O     91.21000000    72.77000000    -2.24000000
   O     90.41000000    74.73000000    -2.44000000
   H     93.16000000    71.67000000    -2.73000000
   H     94.07000000    73.55000000    -4.87000000
   H     91.89000000    74.53000000    -4.76000000
   H     93.02000000    74.98000000    -3.53000000
   N     92.96000000    71.91000000    -6.35000000
   C     92.35000000    71.09000000    -7.37000000
   C     90.92000000    71.42000000    -7.78000000
   O     90.63000000    71.65000000    -8.95000000
   C     92.48000000    69.63000000    -6.95000000
   H     93.62000000    72.60000000    -6.68000000
   H     92.87000000    71.11000000    -8.33000000
   H     91.76000000    69.32000000    -6.19000000
   H     92.30000000    68.97000000    -7.79000000
   H     93.53000000    69.48000000    -6.69000000
   N     90.01000000    71.52000000    -6.80000000
   C     88.58000000    71.78000000    -6.82000000
   C     88.08000000    72.35000000    -5.50000000
   O     88.91000000    72.40000000    -4.60000000
   C     87.96000000    70.43000000    -7.16000000
   C     88.25000000    69.30000000    -6.18000000
   O     88.92000000    69.51000000    -5.14000000
   O     87.96000000    68.14000000    -6.53000000
   H     90.33000000    71.31000000    -5.87000000
   H     88.22000000    72.41000000    -7.64000000
   H     88.14000000    70.16000000    -8.20000000
   H     86.87000000    70.56000000    -7.10000000
   N     86.80000000    72.74000000    -5.51000000
   C     86.10000000    73.29000000    -4.37000000
   C     85.28000000    72.15000000    -3.78000000
   O     85.01000000    71.15000000    -4.45000000
   H     86.27000000    72.74000000    -6.37000000
   H     85.27000000    73.97000000    -4.57000000
   H     86.85000000    73.66000000    -3.67000000
   N     84.89000000    72.28000000    -2.51000000
   C     84.29000000    71.25000000    -1.69000000
   C     83.29000000    71.96000000    -0.79000000
   O     83.53000000    73.03000000    -0.24000000
   C     85.42000000    70.57000000    -0.92000000
   C     86.34000000    69.82000000    -1.88000000
   N     85.96000000    68.65000000    -2.40000000
   O     87.41000000    70.31000000    -2.22000000
   H     85.17000000    73.12000000    -2.02000000
   H     83.66000000    70.60000000    -2.29000000
   H     84.95000000    69.85000000    -0.25000000
   H     85.90000000    71.30000000    -0.26000000
   H     85.08000000    68.23000000    -2.12000000
   H     86.67000000    68.08000000    -2.84000000
   N     82.10000000    71.37000000    -0.64000000
   C     80.91000000    71.97000000    -0.05000000
   C     80.03000000    70.92000000     0.62000000
   O     79.86000000    69.84000000     0.06000000
   H     81.90000000    70.57000000    -1.22000000
   H     80.38000000    72.50000000    -0.84000000
   H     81.26000000    72.65000000     0.72000000
   N     79.49000000    71.20000000     1.80000000
   C     79.61000000    72.42000000     2.56000000
   C     80.75000000    72.39000000     3.56000000
   O     81.22000000    73.49000000     3.86000000
   C     78.32000000    72.69000000     3.34000000
   C     77.23000000    73.10000000     2.36000000
   O     77.85000000    71.53000000     3.99000000
   H     79.02000000    70.43000000     2.27000000
   H     79.67000000    73.23000000     1.83000000
   H     78.53000000    73.49000000     4.05000000
   H     77.58000000    71.77000000     4.87000000
   H     76.39000000    73.50000000     2.92000000
   H     77.56000000    73.89000000     1.68000000
   H     76.96000000    72.29000000     1.67000000
   N     81.34000000    71.26000000     3.97000000
   C     82.47000000    71.08000000     4.86000000
   C     82.32000000    71.71000000     6.23000000
   O     82.64000000    72.87000000     6.50000000
   C     83.77000000    71.47000000     4.17000000
   C     83.84000000    71.04000000     2.71000000
   C     84.96000000    71.03000000     5.02000000
   C     83.51000000    69.57000000     2.48000000
   H     80.94000000    70.44000000     3.54000000
   H     82.48000000    70.00000000     5.03000000
   H     83.87000000    72.55000000     4.13000000
   H     84.80000000    71.44000000     2.39000000
   H     83.03000000    71.55000000     2.19000000
   H     85.87000000    71.23000000     4.45000000
   H     85.17000000    71.54000000     5.97000000
   H     84.93000000    69.96000000     5.21000000
   H     82.47000000    69.25000000     2.46000000
   H     83.85000000    69.46000000     1.45000000
   H     84.00000000    68.83000000     3.11000000
   N     81.80000000    70.95000000     7.20000000
   C     81.22000000    69.62000000     7.09000000
   C     82.25000000    68.50000000     7.13000000
   O     82.43000000    67.81000000     6.13000000
   C     80.11000000    69.45000000     8.12000000
   C     80.35000000    69.96000000     9.53000000
   O     79.42000000    69.93000000    10.36000000
   O     81.52000000    70.31000000     9.82000000
   H     81.66000000    71.37000000     8.10000000
   H     80.86000000    69.46000000     6.07000000
   H     79.91000000    68.38000000     8.09000000
   H     79.29000000    70.06000000     7.72000000
   N     82.80000000    68.21000000     8.31000000
   C     83.77000000    67.14000000     8.48000000
   C     83.18000000    66.05000000     9.36000000
   O     82.09000000    66.26000000     9.90000000
   C     85.07000000    67.76000000     8.97000000
   C     85.06000000    68.39000000    10.34000000
   C     84.74000000    69.75000000    10.51000000
   C     85.65000000    67.66000000    11.38000000
   C     84.96000000    70.30000000    11.77000000
   C     85.85000000    68.22000000    12.65000000
   C     85.56000000    69.58000000    12.81000000
   H     82.50000000    68.74000000     9.11000000
   H     83.97000000    66.77000000     7.47000000
   H     85.36000000    68.50000000     8.23000000
   H     85.81000000    66.96000000     8.84000000
   H     84.31000000    70.31000000     9.70000000
   H     85.98000000    66.65000000    11.20000000
   H     84.78000000    71.36000000    11.75000000
   H     86.15000000    67.60000000    13.48000000
   H     85.77000000    70.12000000    13.73000000
   N     83.75000000    64.86000000     9.51000000
   C     84.88000000    64.21000000     8.86000000
   C     84.73000000    64.05000000     7.36000000
   O     83.64000000    64.21000000     6.81000000
   C     85.21000000    62.91000000     9.58000000
   C     84.56000000    63.18000000    10.94000000
   C     83.31000000    64.00000000    10.59000000
   H     85.71000000    64.90000000     9.01000000
   H     84.67000000    62.10000000     9.08000000
   H     86.27000000    62.74000000     9.72000000
   H     84.08000000    62.32000000    11.40000000
   H     85.22000000    63.64000000    11.67000000
   H     82.56000000    63.31000000    10.21000000
   H     82.93000000    64.56000000    11.44000000
   N     85.81000000    63.58000000     6.72000000
   C     85.91000000    63.20000000     5.33000000
   C     87.01000000    63.76000000     4.43000000
   O     87.43000000    63.06000000     3.51000000
   C     85.78000000    61.70000000     5.13000000
   C     84.45000000    61.14000000     5.63000000
   C     84.00000000    59.77000000     5.14000000
   O     83.57000000    59.85000000     3.97000000
   O     84.08000000    58.68000000     5.75000000
   H     86.58000000    63.40000000     7.35000000
   H     84.97000000    63.56000000     4.91000000
   H     86.58000000    61.13000000     5.59000000
   H     85.74000000    61.42000000     4.07000000
   H     83.73000000    61.92000000     5.36000000
   H     84.35000000    61.11000000     6.71000000
   N     87.47000000    65.01000000     4.56000000
   C     87.04000000    66.09000000     5.42000000
   H     86.03200000    65.88700000     5.78100000
   H     87.71900000    66.17200000     6.26800000
   H     87.04300000    67.02500000     4.86000000
   H     88.18000000    65.35000000     3.92000000
  Ca     89.81000000    70.62000000    -2.86700000
   O     92.38000000    69.46000000    -2.51700000
   H     92.57000000    68.68000000    -1.99700000
   H     92.97000000    69.41000000    -3.26700000
   O     89.78000000    67.91000000    -2.05700000
   H     88.97000000    67.64000000    -2.48700000
   H     90.05000000    67.14000000    -1.56700000
   O     89.56000000    71.43000000    -0.43700000
   H     90.40000000    71.88000000    -0.31700000
   H     88.97000000    71.84000000     0.20300000

Ca 1.00



