%chk=loop1.apoCaM-CA-Ng.Init31.run79.water4.chk
%nprocshared=20
%mem=10GB
%nosave
#b3lyp/svp scf=(tight,noincore,xqc) Test 
#IOP(5/87=12) Density=Current Pop=(MK,readradii) iop(6/33=2) iop(6/42=6)

loop1.apoCaM-CA-Ng.Init31.run79.water4 

   0  1 
   C     56.41000000    36.21000000    37.63000000
   C     55.30000000    35.31000000    37.13000000
   O     54.21000000    35.73000000    36.75000000
   H     57.26300000    36.14400000    36.95400000
   H     56.05500000    37.24000000    37.66700000
   H     56.71300000    35.89400000    38.62800000
   N     55.50000000    33.99000000    37.09000000
   C     54.57000000    32.99000000    36.61000000
   C     54.53000000    31.73000000    37.46000000
   O     55.09000000    31.61000000    38.55000000
   C     55.15000000    32.75000000    35.22000000
   C     54.24000000    32.07000000    34.20000000
   O     53.05000000    31.79000000    34.47000000
   O     54.75000000    31.61000000    33.16000000
   H     56.37000000    33.71000000    37.51000000
   H     53.55000000    33.39000000    36.59000000
   H     55.94000000    32.02000000    35.40000000
   H     55.54000000    33.65000000    34.74000000
   N     53.75000000    30.78000000    36.94000000
   C     53.39000000    29.55000000    37.62000000
   C     54.59000000    28.62000000    37.76000000
   O     54.69000000    27.99000000    38.81000000
   C     52.14000000    28.95000000    36.98000000
   C     51.45000000    27.89000000    37.83000000
   C     50.33000000    27.12000000    37.14000000
   C     49.70000000    26.05000000    38.02000000
   N     50.52000000    24.83000000    37.96000000
   H     53.33000000    30.85000000    36.03000000
   H     53.18000000    29.92000000    38.62000000
   H     52.29000000    28.49000000    36.00000000
   H     51.41000000    29.72000000    36.75000000
   H     51.09000000    28.18000000    38.82000000
   H     52.26000000    27.19000000    38.01000000
   H     50.67000000    26.62000000    36.22000000
   H     49.56000000    27.85000000    36.92000000
   H     48.76000000    25.79000000    37.54000000
   H     49.54000000    26.38000000    39.05000000
   H     51.44000000    25.10000000    38.27000000
   H     50.19000000    24.16000000    38.64000000
   H     50.51000000    24.42000000    37.04000000
   N     55.55000000    28.45000000    36.85000000
   C     55.50000000    28.51000000    35.40000000
   C     56.87000000    28.64000000    34.75000000
   O     57.90000000    28.16000000    35.22000000
   C     54.83000000    27.27000000    34.82000000
   C     54.34000000    27.46000000    33.39000000
   O     53.87000000    26.46000000    32.82000000
   O     54.17000000    28.63000000    32.98000000
   H     56.41000000    28.07000000    37.20000000
   H     54.92000000    29.40000000    35.19000000
   H     53.97000000    27.09000000    35.47000000
   H     55.49000000    26.42000000    34.97000000
   N     56.90000000    29.31000000    33.59000000
   C     58.15000000    29.38000000    32.86000000
   C     58.00000000    30.39000000    31.73000000
   O     58.53000000    31.49000000    31.76000000
   H     56.05000000    29.60000000    33.12000000
   H     58.42000000    28.39000000    32.50000000
   H     58.91000000    29.82000000    33.51000000
   N     57.23000000    30.08000000    30.68000000
   C     57.08000000    30.89000000    29.49000000
   C     58.30000000    30.87000000    28.59000000
   O     58.95000000    29.82000000    28.62000000
   C     55.76000000    30.56000000    28.79000000
   C     54.45000000    30.50000000    29.56000000
   O     53.87000000    31.59000000    29.77000000
   O     53.91000000    29.42000000    29.87000000
   H     56.81000000    29.16000000    30.72000000
   H     56.92000000    31.87000000    29.94000000
   H     55.89000000    29.54000000    28.42000000
   H     55.66000000    31.34000000    28.04000000
   N     58.67000000    31.83000000    27.74000000
   C     57.98000000    33.08000000    27.51000000
   C     57.10000000    33.11000000    26.27000000
   O     56.63000000    34.17000000    25.88000000
   H     59.51000000    31.55000000    27.26000000
   H     58.78000000    33.74000000    27.18000000
   H     57.46000000    33.55000000    28.35000000
   N     56.93000000    31.99000000    25.56000000
   C     56.26000000    31.86000000    24.28000000
   C     56.92000000    32.77000000    23.26000000
   O     56.31000000    33.59000000    22.58000000
   C     54.74000000    31.95000000    24.35000000
   C     54.03000000    31.16000000    25.45000000
   O     54.23000000    31.43000000    23.15000000
   H     57.59000000    31.26000000    25.80000000
   H     56.48000000    30.85000000    23.93000000
   H     54.48000000    33.00000000    24.49000000
   H     53.93000000    32.18000000    22.62000000
   H     54.35000000    30.12000000    25.55000000
   H     54.30000000    31.64000000    26.39000000
   H     52.95000000    31.21000000    25.57000000
   N     58.21000000    32.50000000    23.07000000
   C     59.17000000    33.02000000    22.12000000
   C     59.00000000    32.39000000    20.74000000
   O     59.89000000    31.75000000    20.19000000
   C     59.25000000    34.54000000    22.05000000
   C     59.57000000    35.15000000    23.41000000
   C     60.37000000    34.97000000    21.10000000
   C     60.84000000    34.70000000    24.12000000
   H     58.40000000    31.59000000    23.47000000
   H     60.14000000    32.76000000    22.55000000
   H     58.33000000    35.02000000    21.72000000
   H     58.74000000    34.83000000    24.04000000
   H     59.50000000    36.23000000    23.40000000
   H     60.65000000    36.02000000    21.14000000
   H     61.24000000    34.34000000    21.28000000
   H     60.08000000    34.75000000    20.07000000
   H     60.68000000    35.07000000    25.13000000
   H     60.87000000    33.62000000    24.26000000
   H     61.69000000    35.20000000    23.65000000
   N     57.86000000    32.62000000    20.09000000
   C     57.50000000    32.22000000    18.74000000
   C     56.95000000    33.47000000    18.08000000
   O     56.18000000    34.18000000    18.73000000
   C     56.48000000    31.08000000    18.76000000
   C     55.03000000    31.42000000    19.08000000
   O     56.97000000    29.98000000    19.51000000
   H     57.19000000    33.22000000    20.55000000
   H     58.45000000    31.93000000    18.29000000
   H     56.59000000    30.89000000    17.69000000
   H     57.83000000    29.74000000    19.15000000
   H     54.98000000    31.69000000    20.14000000
   H     54.69000000    32.16000000    18.36000000
   H     54.41000000    30.54000000    18.96000000
   N     57.25000000    33.69000000    16.80000000
   C     56.62000000    34.79000000    16.10000000
   C     55.11000000    34.65000000    16.03000000
   O     54.62000000    33.53000000    15.94000000
   C     57.12000000    35.01000000    14.68000000
   C     58.54000000    35.58000000    14.67000000
   O     57.08000000    33.83000000    13.91000000
   H     57.94000000    33.13000000    16.31000000
   H     56.80000000    35.67000000    16.71000000
   H     56.47000000    35.80000000    14.29000000
   H     57.66000000    33.18000000    14.29000000
   H     59.02000000    34.99000000    15.45000000
   H     59.08000000    35.65000000    13.73000000
   H     58.63000000    36.59000000    15.07000000
   N     54.40000000    35.78000000    16.09000000
   C     52.96000000    35.96000000    16.20000000
   C     52.29000000    35.23000000    17.36000000
   O     51.25000000    34.59000000    17.23000000
   C     52.19000000    35.79000000    14.90000000
   C     52.70000000    36.57000000    13.69000000
   C     51.91000000    36.25000000    12.43000000
   C     52.46000000    36.88000000    11.16000000
   N     51.66000000    36.45000000    10.00000000
   H     54.88000000    36.66000000    16.05000000
   H     52.77000000    36.98000000    16.54000000
   H     51.16000000    36.09000000    15.09000000
   H     52.15000000    34.72000000    14.67000000
   H     53.77000000    36.35000000    13.63000000
   H     52.73000000    37.65000000    13.88000000
   H     50.88000000    36.59000000    12.49000000
   H     51.89000000    35.17000000    12.27000000
   H     53.48000000    36.59000000    10.91000000
   H     52.56000000    37.96000000    11.19000000
   H     51.51000000    35.45000000    10.01000000
   H     50.77000000    36.93000000     9.95000000
   H     52.13000000    36.59000000     9.11000000
   N     52.79000000    35.49000000    18.57000000
   C     52.27000000    35.09000000    19.86000000
   C     53.20000000    34.56000000    20.93000000
   O     52.96000000    33.51000000    21.52000000
   C     51.35000000    36.23000000    20.29000000
   C     50.49000000    35.78000000    21.46000000
   C     49.50000000    36.87000000    21.86000000
   O     48.90000000    37.55000000    21.00000000
   O     49.31000000    37.08000000    23.08000000
   H     53.56000000    36.15000000    18.66000000
   H     51.53000000    34.31000000    19.73000000
   H     50.71000000    36.55000000    19.47000000
   H     51.94000000    37.12000000    20.51000000
   H     51.15000000    35.57000000    22.31000000
   H     49.94000000    34.85000000    21.29000000
   N     54.17000000    35.29000000    21.48000000
   C     54.60000000    36.65000000    21.23000000
   H     55.57400000    36.63800000    20.74100000
   H     53.87600000    37.14800000    20.58500000
   H     54.67500000    37.18800000    22.17500000
   H     54.80000000    34.77000000    22.08000000
  Ca     52.66000000    30.52000000    31.96000000
   O     52.17000000    33.20000000    31.91000000
   H     52.67000000    33.90000000    32.32000000
   H     51.36000000    33.61000000    31.61000000
   O     51.71000000    27.96000000    31.77000000
   H     52.47000000    27.43000000    31.98000000
   H     51.30000000    27.52000000    31.03000000
   O     50.75000000    30.46000000    30.29000000
   H     50.74000000    29.98000000    29.47000000
   H     49.83000000    30.71000000    30.44000000
   O     50.57000000    29.88000000    33.66000000
   H     50.20000000    30.32000000    34.42000000
   H     49.84000000    29.42000000    33.25000000

Ca 1.00



