%chk=loop3.apoCaM-CA-Ng.Init31.run7.water6.chk
%nprocshared=20
%mem=10GB
%nosave
#b3lyp/svp scf=(tight,noincore,xqc) Test 
#IOP(5/87=12) Density=Current Pop=(MK,readradii) iop(6/33=2) iop(6/42=6)

loop3.apoCaM-CA-Ng.Init31.run7.water6 

   0  1 
   C     78.35000000    62.10000000    41.09000000
   C     78.92000000    60.71000000    41.38000000
   O     78.22000000    59.73000000    41.60000000
   H     77.40400000    62.22100000    41.61700000
   H     79.05400000    62.86000000    41.42900000
   H     78.18500000    62.20900000    40.01800000
   N     80.25000000    60.64000000    41.33000000
   C     81.01000000    59.46000000    41.68000000
   C     81.22000000    59.34000000    43.19000000
   O     81.40000000    58.23000000    43.67000000
   C     82.42000000    59.53000000    41.09000000
   C     83.05000000    60.91000000    41.21000000
   O     83.95000000    61.04000000    42.08000000
   O     82.59000000    61.83000000    40.51000000
   H     80.77000000    61.41000000    40.94000000
   H     80.58000000    58.52000000    41.33000000
   H     82.28000000    59.26000000    40.05000000
   H     83.13000000    58.79000000    41.47000000
   N     81.24000000    60.39000000    44.02000000
   C     81.31000000    60.31000000    45.46000000
   C     82.57000000    59.57000000    45.90000000
   O     83.61000000    59.73000000    45.28000000
   C     81.19000000    61.68000000    46.13000000
   C     79.81000000    62.31000000    46.03000000
   C     79.74000000    63.73000000    46.61000000
   C     78.33000000    64.28000000    46.40000000
   N     78.15000000    65.58000000    47.06000000
   H     81.23000000    61.32000000    43.64000000
   H     80.45000000    59.74000000    45.83000000
   H     81.96000000    62.26000000    45.61000000
   H     81.42000000    61.60000000    47.19000000
   H     79.08000000    61.74000000    46.60000000
   H     79.48000000    62.26000000    45.00000000
   H     80.44000000    64.37000000    46.08000000
   H     79.97000000    63.79000000    47.67000000
   H     77.60000000    63.63000000    46.87000000
   H     78.10000000    64.43000000    45.34000000
   H     78.04000000    65.38000000    48.05000000
   H     78.96000000    66.17000000    46.94000000
   H     77.38000000    66.12000000    46.70000000
   N     82.53000000    58.83000000    47.01000000
   C     83.66000000    57.99000000    47.34000000
   C     83.99000000    56.83000000    46.41000000
   O     84.99000000    56.13000000    46.51000000
   C     83.31000000    57.45000000    48.73000000
   C     83.23000000    58.52000000    49.81000000
   O     82.56000000    58.28000000    50.83000000
   O     83.83000000    59.60000000    49.67000000
   H     81.68000000    58.76000000    47.56000000
   H     84.50000000    58.68000000    47.34000000
   H     84.08000000    56.72000000    48.97000000
   H     82.34000000    56.95000000    48.73000000
   N     83.17000000    56.67000000    45.37000000
   C     83.40000000    55.75000000    44.27000000
   C     84.45000000    56.20000000    43.27000000
   O     85.13000000    57.21000000    43.38000000
   H     82.43000000    57.34000000    45.25000000
   H     82.44000000    55.62000000    43.79000000
   H     83.69000000    54.81000000    44.76000000
   N     84.65000000    55.57000000    42.11000000
   C     83.82000000    54.52000000    41.56000000
   C     83.73000000    54.64000000    40.04000000
   O     84.63000000    54.19000000    39.33000000
   C     84.34000000    53.12000000    41.84000000
   C     83.39000000    52.04000000    41.35000000
   N     83.10000000    51.03000000    42.17000000
   O     82.97000000    51.99000000    40.20000000
   H     85.28000000    56.11000000    41.52000000
   H     82.81000000    54.57000000    41.97000000
   H     84.36000000    53.04000000    42.93000000
   H     85.32000000    53.08000000    41.35000000
   H     83.48000000    50.80000000    43.08000000
   H     82.45000000    50.36000000    41.77000000
   N     82.70000000    55.22000000    39.43000000
   C     81.69000000    56.09000000    40.01000000
   C     80.56000000    55.38000000    40.74000000
   O     79.70000000    56.16000000    41.13000000
   H     82.76000000    55.21000000    38.42000000
   H     81.22000000    56.73000000    39.26000000
   H     82.09000000    56.82000000    40.71000000
   N     80.49000000    54.04000000    40.77000000
   C     79.60000000    53.41000000    41.72000000
   C     80.08000000    53.57000000    43.15000000
   O     81.25000000    53.39000000    43.47000000
   C     79.45000000    51.91000000    41.51000000
   C     79.26000000    51.53000000    40.06000000
   C     78.24000000    52.11000000    39.29000000
   C     80.20000000    50.73000000    39.40000000
   C     78.12000000    51.92000000    37.91000000
   C     80.12000000    50.54000000    38.01000000
   C     79.04000000    51.05000000    37.28000000
   O     79.08000000    50.83000000    35.93000000
   H     81.28000000    53.58000000    40.34000000
   H     78.66000000    53.96000000    41.84000000
   H     78.59000000    51.51000000    42.05000000
   H     80.36000000    51.41000000    41.83000000
   H     77.60000000    52.83000000    39.78000000
   H     80.88000000    50.26000000    40.10000000
   H     77.30000000    52.31000000    37.33000000
   H     80.78000000    49.84000000    37.52000000
   H     79.79000000    50.24000000    35.67000000
   N     79.20000000    53.97000000    44.08000000
   C     79.55000000    54.07000000    45.48000000
   C     79.40000000    52.78000000    46.26000000
   O     79.95000000    52.60000000    47.34000000
   C     78.75000000    55.22000000    46.10000000
   C     79.11000000    56.56000000    45.48000000
   C     77.25000000    54.94000000    46.09000000
   C     78.26000000    57.73000000    45.97000000
   H     78.23000000    54.05000000    43.81000000
   H     80.56000000    54.45000000    45.60000000
   H     79.14000000    55.15000000    47.11000000
   H     79.12000000    56.45000000    44.39000000
   H     80.16000000    56.75000000    45.70000000
   H     76.74000000    55.65000000    46.74000000
   H     76.97000000    55.12000000    45.05000000
   H     76.92000000    53.92000000    46.30000000
   H     78.46000000    57.78000000    47.04000000
   H     78.60000000    58.64000000    45.46000000
   H     77.24000000    57.49000000    45.67000000
   N     78.76000000    51.75000000    45.69000000
   C     78.55000000    50.43000000    46.26000000
   C     77.53000000    50.49000000    47.39000000
   O     76.47000000    51.11000000    47.30000000
   C     78.10000000    49.48000000    45.15000000
   O     79.12000000    49.10000000    44.25000000
   H     78.32000000    51.89000000    44.79000000
   H     79.47000000    50.10000000    46.73000000
   H     77.29000000    49.88000000    44.54000000
   H     77.75000000    48.53000000    45.56000000
   H     78.78000000    48.52000000    43.57000000
   N     77.82000000    49.70000000    48.43000000
   C     76.91000000    49.58000000    49.56000000
   C     77.43000000    50.37000000    50.75000000
   O     78.62000000    50.66000000    50.89000000
   C     76.96000000    48.09000000    49.84000000
   H     78.69000000    49.19000000    48.40000000
   H     75.90000000    49.92000000    49.33000000
   H     76.75000000    47.48000000    48.96000000
   H     77.90000000    47.81000000    50.32000000
   H     76.22000000    47.83000000    50.61000000
   N     76.49000000    50.71000000    51.63000000
   C     76.56000000    51.61000000    52.77000000
   C     77.06000000    53.02000000    52.49000000
   O     77.82000000    53.61000000    53.26000000
   C     77.15000000    50.96000000    54.02000000
   H     75.55000000    50.48000000    51.33000000
   H     75.52000000    51.83000000    52.98000000
   H     78.24000000    51.05000000    54.02000000
   H     76.70000000    51.40000000    54.91000000
   H     77.00000000    49.88000000    54.03000000
   N     76.74000000    53.59000000    51.32000000
   C     77.18000000    54.92000000    50.97000000
   C     76.12000000    55.90000000    50.50000000
   O     76.09000000    57.06000000    50.88000000
   C     78.34000000    54.85000000    49.98000000
   C     79.17000000    56.13000000    49.87000000
   C     79.99000000    56.37000000    51.13000000
   O     79.67000000    57.26000000    51.95000000
   O     80.94000000    55.62000000    51.44000000
   H     76.02000000    53.14000000    50.77000000
   H     77.66000000    55.33000000    51.87000000
   H     77.91000000    54.61000000    49.00000000
   H     78.98000000    53.99000000    50.12000000
   H     78.57000000    56.99000000    49.60000000
   H     79.82000000    55.98000000    49.00000000
   N     75.14000000    55.37000000    49.75000000
   C     73.88000000    56.01000000    49.41000000
   H     73.13800000    55.77800000    50.17400000
   H     74.02200000    57.08900000    49.35900000
   H     73.53400000    55.64200000    48.44400000
   H     75.18000000    54.37000000    49.66000000
  Ca     82.07000000    57.16000000    53.10000000
   O     80.79000000    59.73000000    53.12000000
   H     79.84000000    59.78000000    53.03000000
   H     81.13000000    60.11000000    52.31000000
   O     83.82000000    59.22000000    53.38000000
   H     84.43000000    59.74000000    52.85000000
   H     83.92000000    59.56000000    54.27000000
   O     83.02000000    57.56000000    55.63000000
   H     83.66000000    58.22000000    55.89000000
   H     82.89000000    57.03000000    56.41000000
   O     80.24000000    57.02000000    54.85000000
   H     80.11000000    56.61000000    55.71000000
   H     79.35000000    57.21000000    54.55000000
   O     84.52000000    56.23000000    52.51000000
   H     85.02000000    55.42000000    52.62000000
   H     85.17000000    56.89000000    52.26000000
   O     82.42000000    54.85000000    54.36000000
   H     82.89000000    54.10000000    54.73000000
   H     81.64000000    54.47000000    53.97000000

Ca 1.00



