%chk=loop3.apoCaM-CA-Ng.Init31.run59.water6.chk
%nprocshared=20
%mem=10GB
%nosave
#b3lyp/svp scf=(tight,noincore,xqc) Test 
#IOP(5/87=12) Density=Current Pop=(MK,readradii) iop(6/33=2) iop(6/42=6)

loop3.apoCaM-CA-Ng.Init31.run59.water6 

   0  1 
   C    103.64000000    48.81000000    13.87000000
   C    103.26000000    49.92000000    12.89000000
   O    102.11000000    50.04000000    12.48000000
   H    104.52000000    49.11300000    14.43700000
   H    102.81100000    48.63000000    14.55500000
   H    103.86100000    47.89700000    13.31800000
   N    104.17000000    50.82000000    12.52000000
   C    103.96000000    51.77000000    11.45000000
   C    103.91000000    50.98000000    10.15000000
   O    104.57000000    49.95000000     9.99000000
   C    105.04000000    52.84000000    11.39000000
   C    106.47000000    52.48000000    11.00000000
   O    107.32000000    52.40000000    11.91000000
   O    106.63000000    52.43000000     9.76000000
   H    105.07000000    50.83000000    12.98000000
   H    102.98000000    52.23000000    11.59000000
   H    105.12000000    53.42000000    12.31000000
   H    104.72000000    53.53000000    10.61000000
   N    103.03000000    51.38000000     9.23000000
   C    102.73000000    50.77000000     7.95000000
   C    101.82000000    49.55000000     8.08000000
   O    101.91000000    48.58000000     7.33000000
   C    102.28000000    51.84000000     6.96000000
   C    101.84000000    51.15000000     5.68000000
   C    101.96000000    52.05000000     4.45000000
   C    100.69000000    52.89000000     4.47000000
   N    100.83000000    53.94000000     3.46000000
   H    102.59000000    52.28000000     9.35000000
   H    103.67000000    50.39000000     7.54000000
   H    103.12000000    52.53000000     6.83000000
   H    101.48000000    52.48000000     7.34000000
   H    100.79000000    50.89000000     5.80000000
   H    102.55000000    50.34000000     5.53000000
   H    102.03000000    51.40000000     3.57000000
   H    102.78000000    52.73000000     4.65000000
   H    100.55000000    53.37000000     5.44000000
   H     99.84000000    52.26000000     4.22000000
   H     99.97000000    54.45000000     3.31000000
   H    101.47000000    54.69000000     3.69000000
   H    100.99000000    53.45000000     2.59000000
   N    100.91000000    49.63000000     9.05000000
   C     99.83000000    48.69000000     9.26000000
   C     98.57000000    49.11000000     8.51000000
   O     97.67000000    48.30000000     8.33000000
   C     99.47000000    48.48000000    10.73000000
   C     99.05000000    49.75000000    11.47000000
   O     98.87000000    49.62000000    12.70000000
   O     98.55000000    50.80000000    11.03000000
   H    100.97000000    50.46000000     9.64000000
   H    100.15000000    47.71000000     8.90000000
   H    100.40000000    48.07000000    11.13000000
   H     98.65000000    47.79000000    10.86000000
   N     98.57000000    50.25000000     7.81000000
   C     97.56000000    50.69000000     6.86000000
   C     97.86000000    52.14000000     6.51000000
   O     98.80000000    52.79000000     6.96000000
   H     99.12000000    50.99000000     8.22000000
   H     96.57000000    50.63000000     7.31000000
   H     97.55000000    50.06000000     5.97000000
   N     97.07000000    52.70000000     5.59000000
   C     95.94000000    52.10000000     4.91000000
   C     94.60000000    52.72000000     5.27000000
   O     94.39000000    53.93000000     5.33000000
   C     96.32000000    52.23000000     3.43000000
   C     97.33000000    51.26000000     2.84000000
   N     97.58000000    51.35000000     1.53000000
   O     97.96000000    50.42000000     3.47000000
   H     97.11000000    53.70000000     5.44000000
   H     95.96000000    51.03000000     5.12000000
   H     96.61000000    53.26000000     3.22000000
   H     95.40000000    52.04000000     2.89000000
   H     97.19000000    52.19000000     1.12000000
   H     98.25000000    50.71000000     1.12000000
   N     93.51000000    51.95000000     5.36000000
   C     93.34000000    50.68000000     4.69000000
   C     93.70000000    49.47000000     5.54000000
   O     94.56000000    49.40000000     6.42000000
   H     92.65000000    52.41000000     5.62000000
   H     93.98000000    50.71000000     3.81000000
   H     92.36000000    50.59000000     4.21000000
   N     93.30000000    48.30000000     5.02000000
   C     93.49000000    46.98000000     5.57000000
   C     93.62000000    46.03000000     4.39000000
   O     92.75000000    45.24000000     4.02000000
   C     92.22000000    46.60000000     6.33000000
   C     91.86000000    47.61000000     7.40000000
   C     92.52000000    47.62000000     8.64000000
   C     91.05000000    48.70000000     7.07000000
   C     92.29000000    48.67000000     9.54000000
   C     90.82000000    49.78000000     7.94000000
   C     91.52000000    49.79000000     9.16000000
   O     91.45000000    50.86000000    10.00000000
   H     92.52000000    48.41000000     4.39000000
   H     94.25000000    46.94000000     6.36000000
   H     92.37000000    45.61000000     6.75000000
   H     91.48000000    46.67000000     5.54000000
   H     93.16000000    46.78000000     8.83000000
   H     90.55000000    48.67000000     6.12000000
   H     92.77000000    48.63000000    10.50000000
   H     90.19000000    50.57000000     7.58000000
   H     90.86000000    51.52000000     9.63000000
   N     94.80000000    46.02000000     3.77000000
   C     95.01000000    45.52000000     2.43000000
   C     95.29000000    44.02000000     2.42000000
   O     95.31000000    43.46000000     1.33000000
   C     96.06000000    46.38000000     1.75000000
   C     95.76000000    47.87000000     1.56000000
   C     97.47000000    46.37000000     2.34000000
   C     94.56000000    48.14000000     0.65000000
   H     95.58000000    46.24000000     4.38000000
   H     94.10000000    45.52000000     1.83000000
   H     96.10000000    46.06000000     0.71000000
   H     96.62000000    48.33000000     1.09000000
   H     95.54000000    48.45000000     2.46000000
   H     97.83000000    45.35000000     2.43000000
   H     98.08000000    46.99000000     1.67000000
   H     97.37000000    46.83000000     3.32000000
   H     94.64000000    49.17000000     0.32000000
   H     94.65000000    47.57000000    -0.27000000
   H     93.62000000    47.87000000     1.13000000
   N     95.55000000    43.33000000     3.53000000
   C     95.98000000    41.95000000     3.56000000
   C     97.49000000    41.76000000     3.68000000
   O     98.05000000    40.75000000     3.25000000
   C     95.24000000    41.14000000     4.62000000
   O     95.88000000    41.04000000     5.87000000
   H     95.49000000    43.86000000     4.39000000
   H     95.70000000    41.52000000     2.60000000
   H     95.00000000    40.15000000     4.24000000
   H     94.28000000    41.65000000     4.76000000
   H     96.18000000    41.91000000     6.14000000
   N     98.16000000    42.75000000     4.26000000
   C     99.58000000    42.88000000     4.51000000
   C    100.00000000    42.29000000     5.85000000
   O    100.98000000    42.76000000     6.43000000
   C    100.04000000    44.33000000     4.32000000
   H     97.59000000    43.49000000     4.65000000
   H    100.04000000    42.21000000     3.78000000
   H     99.67000000    44.92000000     5.16000000
   H    101.12000000    44.36000000     4.41000000
   H     99.66000000    44.77000000     3.40000000
   N     99.32000000    41.28000000     6.39000000
   C     99.47000000    40.70000000     7.71000000
   C     99.30000000    41.72000000     8.83000000
   O    100.05000000    41.73000000     9.80000000
   C    100.74000000    39.87000000     7.73000000
   H     98.55000000    41.04000000     5.78000000
   H     98.62000000    40.02000000     7.75000000
   H    100.59000000    39.24000000     8.60000000
   H    100.69000000    39.26000000     6.83000000
   H    101.64000000    40.49000000     7.71000000
   N     98.44000000    42.72000000     8.62000000
   C     97.90000000    43.57000000     9.66000000
   C     96.74000000    43.10000000    10.52000000
   O     96.74000000    43.40000000    11.71000000
   C     97.70000000    44.96000000     9.07000000
   C     96.41000000    45.22000000     8.29000000
   C     96.47000000    44.56000000     6.91000000
   O     96.45000000    43.31000000     6.86000000
   O     96.33000000    45.32000000     5.93000000
   H     97.86000000    42.68000000     7.80000000
   H     98.67000000    43.68000000    10.43000000
   H     98.55000000    45.24000000     8.45000000
   H     97.65000000    45.64000000     9.92000000
   H     96.30000000    46.29000000     8.14000000
   H     95.54000000    44.88000000     8.85000000
   N     95.85000000    42.26000000     9.99000000
   C     94.63000000    41.72000000    10.56000000
   H     93.82400000    41.79700000     9.83100000
   H     94.78300000    40.67300000    10.82200000
   H     94.36600000    42.28400000    11.45500000
   H     95.97000000    41.96000000     9.03000000
  Ca     97.76000000    51.99000000    13.42000000
   O     98.66000000    50.72000000    15.68000000
   H     97.96000000    50.32000000    16.19000000
   H     99.47000000    50.37000000    16.06000000
   O     95.64000000    50.87000000    12.26000000
   H     95.59000000    50.31000000    11.48000000
   H     94.72000000    51.00000000    12.51000000
   O    100.39900000    52.30000000    12.77000000
   H    100.78900000    51.45000000    12.93000000
   H    100.92900000    52.69000000    12.07000000
   O     97.68000000    54.34000000    14.51000000
   H     97.15000000    54.58000000    15.27000000
   H     98.17000000    55.14000000    14.29000000
   O     95.87000000    52.33000000    15.47000000
   H     95.89000000    53.17000000    15.93000000
   H     94.95000000    52.17000000    15.28000000
   O     97.93000000    53.87000000    11.45000000
   H     98.76000000    54.12000000    11.05000000
   H     97.48000000    54.71000000    11.59000000

Ca 1.00



