%chk=loop3.apoCaM-CA-Ng.Init293.run35.water3.chk
%nprocshared=20
%mem=10GB
%nosave
#b3lyp/svp scf=(tight,noincore,xqc) Test 
#IOP(5/87=12) Density=Current Pop=(MK,readradii) iop(6/33=2) iop(6/42=6)

loop3.apoCaM-CA-Ng.Init293.run35.water3 

   0  1 
   C     19.09000000    74.64000000    79.67000000
   C     17.73000000    74.93000000    79.06000000
   O     16.88000000    74.05000000    79.14000000
   H     19.78400000    75.43700000    79.40400000
   H     18.99800000    74.58500000    80.75500000
   H     19.46500000    73.69000000    79.28800000
   N     17.52000000    76.02000000    78.31000000
   C     16.30000000    76.18000000    77.55000000
   C     15.10000000    76.36000000    78.46000000
   O     15.22000000    76.81000000    79.60000000
   C     16.41000000    77.47000000    76.74000000
   C     15.73000000    77.25000000    75.40000000
   O     16.33000000    77.67000000    74.39000000
   O     14.60000000    76.72000000    75.32000000
   H     18.30000000    76.66000000    78.27000000
   H     16.07000000    75.33000000    76.91000000
   H     17.42000000    77.84000000    76.54000000
   H     15.86000000    78.26000000    77.26000000
   N     13.95000000    75.98000000    77.91000000
   C     12.65000000    76.13000000    78.53000000
   C     12.30000000    77.58000000    78.84000000
   O     11.27000000    77.84000000    79.46000000
   C     12.38000000    75.15000000    79.67000000
   C     12.44000000    73.67000000    79.30000000
   C     12.10000000    72.77000000    80.48000000
   C     12.62000000    71.34000000    80.33000000
   N     11.96000000    70.36000000    81.20000000
   H     14.01000000    75.38000000    77.10000000
   H     11.91000000    75.80000000    77.81000000
   H     11.39000000    75.39000000    80.07000000
   H     13.08000000    75.29000000    80.49000000
   H     13.41000000    73.40000000    78.88000000
   H     11.69000000    73.61000000    78.51000000
   H     11.03000000    72.83000000    80.67000000
   H     12.48000000    73.15000000    81.43000000
   H     13.66000000    71.39000000    80.66000000
   H     12.70000000    71.05000000    79.28000000
   H     11.93000000    70.67000000    82.16000000
   H     10.98000000    70.30000000    80.93000000
   H     12.44000000    69.47000000    81.14000000
   N     13.03000000    78.57000000    78.32000000
   C     12.83000000    80.00000000    78.44000000
   C     13.59000000    80.71000000    77.33000000
   O     14.82000000    80.64000000    77.28000000
   C     13.39000000    80.51000000    79.77000000
   C     13.07000000    81.99000000    79.88000000
   O     13.91000000    82.65000000    80.53000000
   O     12.14000000    82.62000000    79.33000000
   H     13.60000000    78.26000000    77.54000000
   H     11.78000000    80.26000000    78.38000000
   H     14.47000000    80.43000000    79.81000000
   H     12.93000000    79.94000000    80.58000000
   N     12.89000000    81.57000000    76.59000000
   C     13.37000000    82.45000000    75.54000000
   C     13.75000000    83.80000000    76.12000000
   O     13.14000000    84.22000000    77.11000000
   H     11.92000000    81.67000000    76.84000000
   H     12.61000000    82.64000000    74.78000000
   H     14.25000000    82.04000000    75.06000000
   N     14.76000000    84.46000000    75.55000000
   C     15.24000000    85.73000000    76.04000000
   C     15.73000000    86.65000000    74.94000000
   O     15.91000000    87.85000000    75.16000000
   C     16.41000000    85.45000000    76.98000000
   C     15.98000000    84.87000000    78.31000000
   N     16.18000000    83.57000000    78.57000000
   O     15.43000000    85.53000000    79.19000000
   H     15.26000000    84.10000000    74.75000000
   H     14.46000000    86.33000000    76.52000000
   H     16.79000000    86.46000000    77.17000000
   H     17.19000000    84.78000000    76.61000000
   H     16.85000000    82.98000000    78.10000000
   H     15.69000000    83.19000000    79.36000000
   N     15.92000000    86.16000000    73.71000000
   C     16.23000000    87.01000000    72.58000000
   C     17.53000000    87.77000000    72.83000000
   O     18.54000000    87.21000000    73.25000000
   H     15.83000000    85.17000000    73.52000000
   H     15.42000000    87.72000000    72.40000000
   H     16.31000000    86.43000000    71.67000000
   N     17.57000000    89.07000000    72.53000000
   C     18.65000000    89.99000000    72.84000000
   C     19.19000000    90.04000000    74.26000000
   O     20.25000000    90.65000000    74.41000000
   C     19.71000000    89.99000000    71.74000000
   C     19.36000000    90.80000000    70.51000000
   C     18.88000000    90.17000000    69.36000000
   C     19.28000000    92.19000000    70.65000000
   C     18.47000000    90.93000000    68.25000000
   C     18.83000000    92.96000000    69.56000000
   C     18.45000000    92.33000000    68.36000000
   O     18.08000000    93.06000000    67.27000000
   H     16.68000000    89.52000000    72.42000000
   H     18.25000000    91.00000000    72.78000000
   H     20.06000000    89.00000000    71.45000000
   H     20.60000000    90.49000000    72.12000000
   H     19.03000000    89.11000000    69.24000000
   H     19.49000000    92.71000000    71.57000000
   H     18.20000000    90.41000000    67.35000000
   H     18.83000000    94.02000000    69.74000000
   H     18.18000000    94.00000000    67.42000000
   N     18.57000000    89.49000000    75.31000000
   C     18.82000000    89.47000000    76.73000000
   C     18.74000000    90.84000000    77.40000000
   O     18.01000000    91.01000000    78.37000000
   C     20.14000000    88.75000000    76.98000000
   C     20.13000000    87.29000000    76.55000000
   C     20.59000000    88.64000000    78.43000000
   C     21.47000000    86.75000000    76.05000000
   H     17.69000000    89.07000000    75.05000000
   H     18.11000000    88.77000000    77.17000000
   H     20.93000000    89.31000000    76.47000000
   H     19.50000000    87.16000000    75.67000000
   H     19.80000000    86.69000000    77.40000000
   H     19.85000000    88.15000000    79.06000000
   H     21.53000000    88.09000000    78.47000000
   H     20.82000000    89.66000000    78.73000000
   H     21.89000000    87.46000000    75.35000000
   H     22.08000000    86.54000000    76.93000000
   H     21.31000000    85.79000000    75.55000000
   N     19.39000000    91.88000000    76.87000000
   C     19.17000000    93.24000000    77.31000000
   C     19.57000000    93.53000000    78.75000000
   O     19.21000000    94.61000000    79.22000000
   C     19.98000000    94.15000000    76.39000000
   O     19.97000000    93.71000000    75.05000000
   H     20.05000000    91.74000000    76.12000000
   H     18.10000000    93.42000000    77.20000000
   H     21.03000000    94.14000000    76.68000000
   H     19.43000000    95.08000000    76.48000000
   H     20.79000000    94.11000000    74.75000000
   N     20.30000000    92.64000000    79.43000000
   C     20.65000000    92.66000000    80.83000000
   C     19.45000000    92.79000000    81.76000000
   O     19.57000000    93.22000000    82.91000000
   C     21.61000000    93.80000000    81.17000000
   H     20.63000000    91.84000000    78.90000000
   H     21.18000000    91.75000000    81.13000000
   H     22.51000000    93.65000000    80.57000000
   H     21.19000000    94.74000000    80.84000000
   H     21.98000000    93.73000000    82.20000000
   N     18.33000000    92.21000000    81.30000000
   C     17.08000000    92.15000000    82.03000000
   C     16.90000000    90.77000000    82.65000000
   O     17.51000000    89.76000000    82.31000000
   C     15.94000000    92.59000000    81.12000000
   H     18.34000000    91.84000000    80.37000000
   H     17.12000000    92.86000000    82.85000000
   H     15.08000000    92.76000000    81.77000000
   H     16.11000000    93.59000000    80.71000000
   H     15.74000000    91.83000000    80.37000000
   N     15.86000000    90.68000000    83.48000000
   C     15.37000000    89.50000000    84.16000000
   C     16.36000000    88.70000000    84.99000000
   O     16.35000000    87.47000000    84.94000000
   C     14.82000000    88.56000000    83.09000000
   C     13.68000000    87.65000000    83.54000000
   C     13.24000000    86.73000000    82.42000000
   O     12.36000000    87.10000000    81.61000000
   O     13.86000000    85.69000000    82.14000000
   H     15.23000000    91.48000000    83.51000000
   H     14.69000000    89.80000000    84.96000000
   H     15.64000000    87.95000000    82.70000000
   H     14.39000000    89.21000000    82.33000000
   H     12.90000000    88.36000000    83.82000000
   H     13.98000000    87.00000000    84.37000000
   N     17.28000000    89.45000000    85.59000000
   C     18.54000000    88.91000000    86.08000000
   H     19.28000000    89.70800000    86.13400000
   H     18.39200000    88.48500000    87.07300000
   H     18.89200000    88.13400000    85.40100000
   H     17.09000000    90.44000000    85.66000000
  Ca     12.82000000    84.94000000    79.90000000
   O     11.13000000    84.28000000    81.86000000
   H     10.73000000    83.50000000    82.26000000
   H     10.59000000    85.01000000    82.17000000
   O     12.91000000    87.27000000    78.46000000
   H     13.66000000    87.84000000    78.62000000
   H     12.18000000    87.87000000    78.31000000
   O     10.15000000    85.69000000    79.39000000
   H     10.02000000    86.58000000    79.08000000
   H      9.29000000    85.41000000    79.70000000

Ca 1.00



