%chk=loop4.apoCaM-CA-Ng.Init295.run10.water5.chk
%nprocshared=20
%mem=10GB
%nosave
#b3lyp/svp scf=(tight,noincore,xqc) Test 
#IOP(5/87=12) Density=Current Pop=(MK,readradii) iop(6/33=2) iop(6/42=6)

loop4.apoCaM-CA-Ng.Init295.run10.water5 

   -3  1 
   C     71.89000000    34.02000000    80.66000000
   C     72.31000000    34.59000000    82.01000000
   O     73.34000000    35.26000000    82.00000000
   H     71.02900000    34.57300000    80.28500000
   H     72.71500000    34.11100000    79.95400000
   H     71.62400000    32.96900000    80.77600000
   N     71.64000000    34.32000000    83.13000000
   C     72.11000000    34.57000000    84.48000000
   C     72.24000000    36.07000000    84.73000000
   O     72.91000000    36.39000000    85.72000000
   C     73.38000000    33.80000000    84.85000000
   C     73.34000000    32.35000000    84.39000000
   O     74.10000000    31.97000000    83.48000000
   O     72.71000000    31.42000000    84.94000000
   H     70.82000000    33.75000000    83.05000000
   H     71.36000000    34.15000000    85.15000000
   H     73.51000000    33.85000000    85.93000000
   H     74.19000000    34.29000000    84.32000000
   N     71.65000000    36.99000000    83.96000000
   C     71.73000000    38.43000000    84.10000000
   C     71.03000000    38.72000000    85.42000000
   O     69.86000000    38.37000000    85.60000000
   C     71.09000000    39.16000000    82.93000000
   C     71.29000000    38.51000000    81.57000000
   C     71.60000000    40.60000000    83.00000000
   C     72.74000000    38.44000000    81.09000000
   H     71.22000000    36.59000000    83.14000000
   H     72.78000000    38.71000000    84.20000000
   H     70.02000000    39.26000000    83.10000000
   H     70.73000000    39.17000000    80.90000000
   H     70.92000000    37.49000000    81.58000000
   H     71.07000000    41.25000000    82.31000000
   H     71.42000000    41.02000000    83.99000000
   H     72.66000000    40.65000000    82.76000000
   H     73.34000000    38.06000000    81.91000000
   H     72.82000000    37.73000000    80.26000000
   H     72.90000000    39.46000000    80.75000000
   N     71.59000000    39.40000000    86.42000000
   C     72.88000000    40.06000000    86.48000000
   C     73.99000000    39.23000000    87.10000000
   O     75.04000000    39.07000000    86.48000000
   C     72.81000000    41.42000000    87.17000000
   C     71.81000000    42.39000000    86.55000000
   O     72.25000000    43.11000000    85.64000000
   O     70.61000000    42.42000000    86.92000000
   H     70.91000000    39.61000000    87.14000000
   H     73.23000000    40.25000000    85.46000000
   H     73.81000000    41.84000000    87.18000000
   H     72.47000000    41.24000000    88.19000000
   N     73.73000000    38.64000000    88.26000000
   C     74.66000000    37.90000000    89.09000000
   C     75.84000000    38.76000000    89.51000000
   O     75.69000000    39.83000000    90.10000000
   H     72.82000000    38.70000000    88.70000000
   H     75.05000000    37.01000000    88.59000000
   H     74.23000000    37.60000000    90.05000000
   N     77.03000000    38.30000000    89.12000000
   C     78.27000000    39.05000000    89.10000000
   C     78.82000000    39.37000000    87.71000000
   O     79.96000000    39.81000000    87.62000000
   C     79.31000000    38.44000000    90.02000000
   C     78.76000000    37.80000000    91.29000000
   O     78.17000000    38.51000000    92.14000000
   O     79.02000000    36.60000000    91.53000000
   H     77.06000000    37.38000000    88.70000000
   H     78.10000000    40.04000000    89.53000000
   H     80.08000000    39.17000000    90.28000000
   H     79.81000000    37.67000000    89.43000000
   N     78.02000000    39.27000000    86.65000000
   C     78.47000000    39.44000000    85.28000000
   C     79.58000000    38.56000000    84.73000000
   O     80.29000000    38.92000000    83.80000000
   H     77.02000000    39.24000000    86.81000000
   H     78.76000000    40.46000000    85.03000000
   H     77.64000000    39.39000000    84.57000000
   N     79.82000000    37.43000000    85.41000000
   C     81.01000000    36.61000000    85.33000000
   C     81.36000000    36.06000000    83.95000000
   O     82.54000000    35.91000000    83.67000000
   C     82.19000000    37.18000000    86.12000000
   C     83.44000000    36.38000000    86.48000000
   C     83.25000000    35.03000000    87.15000000
   N     84.25000000    34.19000000    87.44000000
   O     82.15000000    34.76000000    87.62000000
   H     79.23000000    37.14000000    86.18000000
   H     80.69000000    35.69000000    85.81000000
   H     81.84000000    37.59000000    87.07000000
   H     82.54000000    38.08000000    85.61000000
   H     84.08000000    36.99000000    87.11000000
   H     84.15000000    36.25000000    85.66000000
   H     85.15000000    34.47000000    87.09000000
   H     84.01000000    33.33000000    87.92000000
   N     80.41000000    35.79000000    83.05000000
   C     80.59000000    35.09000000    81.80000000
   C     80.88000000    33.59000000    81.88000000
   O     80.16000000    32.95000000    82.65000000
   C     79.40000000    35.35000000    80.89000000
   C     78.99000000    36.82000000    80.82000000
   C     79.63000000    34.78000000    79.49000000
   H     79.44000000    35.85000000    83.32000000
   H     81.42000000    35.56000000    81.27000000
   H     78.59000000    34.73000000    81.26000000
   H     78.55000000    37.11000000    81.77000000
   H     79.81000000    37.48000000    80.52000000
   H     78.28000000    36.95000000    80.01000000
   H     80.44000000    35.32000000    79.01000000
   H     79.76000000    33.70000000    79.50000000
   H     78.74000000    34.98000000    78.89000000
   N     81.87000000    32.95000000    81.26000000
   C     82.19000000    31.54000000    81.35000000
   C     81.32000000    30.72000000    80.41000000
   O     80.51000000    31.32000000    79.70000000
   C     83.66000000    31.21000000    81.13000000
   C     84.14000000    31.32000000    79.69000000
   N     85.47000000    31.27000000    79.59000000
   O     83.46000000    31.49000000    78.68000000
   H     82.35000000    33.43000000    80.52000000
   H     82.08000000    31.34000000    82.42000000
   H     83.92000000    30.27000000    81.63000000
   H     84.18000000    32.09000000    81.50000000
   H     86.04000000    31.20000000    80.42000000
   H     85.76000000    31.35000000    78.62000000
   N     81.39000000    29.39000000    80.51000000
   C     80.80000000    28.42000000    79.61000000
   C     80.66000000    27.12000000    80.38000000
   O     81.58000000    26.61000000    81.01000000
   C     81.70000000    28.24000000    78.39000000
   C     81.40000000    27.14000000    77.40000000
   C     80.31000000    27.39000000    76.57000000
   C     82.16000000    25.96000000    77.44000000
   C     80.07000000    26.47000000    75.54000000
   C     81.89000000    25.05000000    76.41000000
   C     80.86000000    25.30000000    75.49000000
   O     80.63000000    24.45000000    74.45000000
   H     81.88000000    29.06000000    81.33000000
   H     79.79000000    28.73000000    79.34000000
   H     82.73000000    28.21000000    78.74000000
   H     81.70000000    29.20000000    77.88000000
   H     79.81000000    28.34000000    76.71000000
   H     82.94000000    25.88000000    78.18000000
   H     79.28000000    26.55000000    74.81000000
   H     82.54000000    24.19000000    76.29000000
   H     81.23000000    23.70000000    74.43000000
   N     79.46000000    26.52000000    80.35000000
   C     79.09000000    25.13000000    80.54000000
   C     79.08000000    24.35000000    79.24000000
   O     79.74000000    23.32000000    79.13000000
   C     77.88000000    24.84000000    81.43000000
   C     78.08000000    25.39000000    82.84000000
   C     78.01000000    26.91000000    82.89000000
   O     77.18000000    27.52000000    82.19000000
   O     78.60000000    27.51000000    83.81000000
   H     78.70000000    26.99000000    79.89000000
   H     79.93000000    24.77000000    81.13000000
   H     77.82000000    23.75000000    81.48000000
   H     76.92000000    25.24000000    81.09000000
   H     79.05000000    24.98000000    83.14000000
   H     77.36000000    24.96000000    83.52000000
   N     78.33000000    24.73000000    78.20000000
   C     77.08000000    25.47000000    78.25000000
   C     76.74000000    26.13000000    76.92000000
   O     77.05000000    25.67000000    75.82000000
   C     76.04000000    24.45000000    78.71000000
   C     75.54000000    23.60000000    77.54000000
   C     74.48000000    22.61000000    77.99000000
   O     73.40000000    23.03000000    78.46000000
   O     74.76000000    21.40000000    78.14000000
   H     78.62000000    24.32000000    77.33000000
   H     77.12000000    26.18000000    79.07000000
   H     75.19000000    25.00000000    79.11000000
   H     76.30000000    23.76000000    79.51000000
   H     76.39000000    23.10000000    77.07000000
   H     75.14000000    24.31000000    76.83000000
   N     75.99000000    27.23000000    77.01000000
   C     75.33000000    28.05000000    76.02000000
   H     74.42100000    28.47300000    76.44700000
   H     75.99600000    28.85700000    75.71300000
   H     75.07400000    27.44000000    75.15400000
   H     75.70000000    27.49000000    77.94000000
  Ca     73.70000000    29.52000000    83.20000000
   O     74.75000000    29.06000000    85.76000000
   H     74.61000000    28.27000000    86.29000000
   H     75.53000000    29.47000000    86.14000000
   O     74.76000000    30.34000000    80.80000000
   H     74.73000000    29.56000000    80.23000000
   H     74.54000000    31.07000000    80.22000000
   O     74.61000000    27.01000000    82.77000000
   H     74.35000000    26.16000000    82.43000000
   H     75.52000000    27.11000000    82.48000000
   O     71.94000000    28.06000000    84.46000000
   H     71.66000000    27.50000000    85.18000000
   H     71.49000000    27.71000000    83.69000000
   O     76.28000000    29.79000000    83.00000000
   H     76.65000000    28.93000000    82.82000000
   H     76.93000000    30.41000000    82.66000000

Ca 1.00



