%chk=loop2.apoCaM-CA-Ng.Init295.run70.water3.chk
%nprocshared=20
%mem=10GB
%nosave
#b3lyp/svp scf=(tight,noincore,xqc) Test 
#IOP(5/87=12) Density=Current Pop=(MK,readradii) iop(6/33=2) iop(6/42=6)

loop2.apoCaM-CA-Ng.Init295.run70.water3 

   -2  1 
   C     16.86000000     8.71000000    37.51000000
   C     17.76000000     9.49000000    38.45000000
   O     17.70000000    10.72000000    38.44000000
   H     15.96200000     9.29200000    37.30200000
   H     17.39000000     8.51400000    36.57800000
   H     16.58000000     7.76500000    37.97500000
   N     18.53000000     8.84000000    39.33000000
   C     19.56000000     9.51000000    40.09000000
   C     19.26000000     9.55000000    41.58000000
   O     20.11000000     9.79000000    42.43000000
   C     20.91000000     8.82000000    39.88000000
   C     22.13000000     9.72000000    39.79000000
   O     23.25000000     9.16000000    39.85000000
   O     22.12000000    10.91000000    39.40000000
   H     18.36000000     7.85000000    39.45000000
   H     19.73000000    10.47000000    39.61000000
   H     20.82000000     8.26000000    38.95000000
   H     21.09000000     8.08000000    40.65000000
   N     18.01000000     9.31000000    41.95000000
   C     17.53000000     9.46000000    43.31000000
   C     16.53000000     8.35000000    43.60000000
   O     15.68000000     7.96000000    42.80000000
   C     16.90000000    10.83000000    43.53000000
   H     17.41000000     8.98000000    41.21000000
   H     18.33000000     9.29000000    44.04000000
   H     17.70000000    11.57000000    43.44000000
   H     16.12000000    11.14000000    42.84000000
   H     16.41000000    10.92000000    44.49000000
   N     16.33000000     7.92000000    44.84000000
   C     16.81000000     8.32000000    46.15000000
   C     17.25000000     7.11000000    46.96000000
   O     16.44000000     6.19000000    47.06000000
   C     15.82000000     9.19000000    46.92000000
   C     16.50000000    10.01000000    48.01000000
   O     17.42000000    10.79000000    47.71000000
   O     16.08000000     9.98000000    49.19000000
   H     15.48000000     7.37000000    44.83000000
   H     17.70000000     8.95000000    46.06000000
   H     15.01000000     8.55000000    47.28000000
   H     15.45000000     9.96000000    46.24000000
   N     18.43000000     7.10000000    47.58000000
   C     19.10000000     5.94000000    48.14000000
   C     19.86000000     5.14000000    47.09000000
   O     20.50000000     5.80000000    46.27000000
   H     18.99000000     7.94000000    47.48000000
   H     18.28000000     5.39000000    48.61000000
   H     19.72000000     6.22000000    48.99000000
   N     20.12000000     3.84000000    47.24000000
   C     19.38000000     2.99000000    48.15000000
   C     17.92000000     2.96000000    47.71000000
   O     17.60000000     2.76000000    46.54000000
   C     20.09000000     1.65000000    48.23000000
   C     19.63000000     0.85000000    49.45000000
   N     20.59000000     0.34000000    50.22000000
   O     18.45000000     0.74000000    49.76000000
   H     20.73000000     3.34000000    46.61000000
   H     19.40000000     3.38000000    49.16000000
   H     21.15000000     1.87000000    48.32000000
   H     19.84000000     1.04000000    47.36000000
   H     21.56000000     0.55000000    50.03000000
   H     20.28000000     0.02000000    51.12000000
   N     17.01000000     3.11000000    48.67000000
   C     15.59000000     3.19000000    48.41000000
   C     14.82000000     4.05000000    49.40000000
   O     13.87000000     3.54000000    49.98000000
   H     17.29000000     3.03000000    49.64000000
   H     15.19000000     2.18000000    48.44000000
   H     15.44000000     3.70000000    47.46000000
   N     15.29000000     5.30000000    49.50000000
   C     14.81000000     6.29000000    50.44000000
   C     13.93000000     7.33000000    49.77000000
   O     14.01000000     8.50000000    50.16000000
   C     16.04000000     6.85000000    51.15000000
   C     17.00000000     5.86000000    51.81000000
   O     16.86000000     7.61000000    50.28000000
   H     15.99000000     5.51000000    48.80000000
   H     14.18000000     5.77000000    51.16000000
   H     15.69000000     7.30000000    52.08000000
   H     16.43000000     8.46000000    50.15000000
   H     17.55000000     5.30000000    51.06000000
   H     17.54000000     6.40000000    52.58000000
   H     16.51000000     5.14000000    52.47000000
   N     13.12000000     7.02000000    48.76000000
   C     12.14000000     7.85000000    48.08000000
   C     11.04000000     8.35000000    49.01000000
   O     10.52000000     7.69000000    49.90000000
   C     11.62000000     7.18000000    46.81000000
   C     12.76000000     6.78000000    45.89000000
   C     10.78000000     5.95000000    47.13000000
   C     12.37000000     5.97000000    44.65000000
   H     13.18000000     6.05000000    48.48000000
   H     12.72000000     8.72000000    47.78000000
   H     11.07000000     7.93000000    46.24000000
   H     13.53000000     6.18000000    46.37000000
   H     13.25000000     7.70000000    45.57000000
   H     11.29000000     5.19000000    47.72000000
   H      9.93000000     6.35000000    47.69000000
   H     10.45000000     5.49000000    46.20000000
   H     11.44000000     6.38000000    44.26000000
   H     13.10000000     5.95000000    43.85000000
   H     12.30000000     4.92000000    44.94000000
   N     10.62000000     9.60000000    48.86000000
   C      9.51000000    10.22000000    49.55000000
   C      8.74000000    11.24000000    48.72000000
   O      9.35000000    11.99000000    47.96000000
   C      9.93000000    10.96000000    50.82000000
   C     10.84000000    10.22000000    51.79000000
   O     10.38000000     9.46000000    52.68000000
   O     12.06000000    10.40000000    51.66000000
   H     11.06000000    10.17000000    48.15000000
   H      8.77000000     9.48000000    49.86000000
   H      9.03000000    11.23000000    51.38000000
   H     10.33000000    11.96000000    50.64000000
   N      7.42000000    11.21000000    48.87000000
   C      6.60000000    11.98000000    47.96000000
   C      7.02000000    11.76000000    46.51000000
   O      6.97000000    10.64000000    46.01000000
   C      5.16000000    11.54000000    48.21000000
   C      4.01000000    12.01000000    47.35000000
   C      3.24000000    11.12000000    46.58000000
   C      3.84000000    13.38000000    47.16000000
   C      2.18000000    11.59000000    45.81000000
   C      2.77000000    13.84000000    46.38000000
   C      1.93000000    12.96000000    45.68000000
   H      7.04000000    10.62000000    49.60000000
   H      6.52000000    13.04000000    48.22000000
   H      4.84000000    11.80000000    49.22000000
   H      5.15000000    10.45000000    48.11000000
   H      3.50000000    10.08000000    46.59000000
   H      4.49000000    14.07000000    47.69000000
   H      1.61000000    10.93000000    45.18000000
   H      2.57000000    14.89000000    46.22000000
   H      1.08000000    13.37000000    45.15000000
   N      7.36000000    12.84000000    45.81000000
   C      7.53000000    12.88000000    44.38000000
   C      8.74000000    12.10000000    43.88000000
   O      8.70000000    11.75000000    42.70000000
   C      7.62000000    14.34000000    43.95000000
   C      8.09000000    15.02000000    45.24000000
   C      7.35000000    14.21000000    46.30000000
   H      6.73000000    12.37000000    43.85000000
   H      8.27000000    14.61000000    43.11000000
   H      6.63000000    14.65000000    43.63000000
   H      9.15000000    14.87000000    45.40000000
   H      7.78000000    16.06000000    45.36000000
   H      7.84000000    14.33000000    47.26000000
   H      6.32000000    14.54000000    46.40000000
   N      9.71000000    11.72000000    44.72000000
   C     10.81000000    10.88000000    44.31000000
   C     10.42000000     9.49000000    43.82000000
   O     11.18000000     8.79000000    43.15000000
   C     11.77000000    10.85000000    45.50000000
   C     12.40000000    12.16000000    45.97000000
   C     13.25000000    12.08000000    47.23000000
   O     13.08000000    11.21000000    48.11000000
   O     14.10000000    12.99000000    47.36000000
   H      9.67000000    12.07000000    45.67000000
   H     11.33000000    11.40000000    43.51000000
   H     12.56000000    10.11000000    45.46000000
   H     11.26000000    10.49000000    46.39000000
   H     11.72000000    12.98000000    46.19000000
   H     13.02000000    12.44000000    45.12000000
   N      9.18000000     9.07000000    44.10000000
   C      8.66000000     7.81000000    43.61000000
   H      7.72400000     7.98600000    43.07900000
   H      9.38300000     7.35700000    42.93100000
   H      8.48000000     7.13900000    44.45000000
   H      8.61000000     9.62000000    44.73000000
  Ca     14.24000000    11.04000000    50.51000000
   O     15.93000000     9.86000000    52.39000000
   H     15.84000000     9.60000000    53.31000000
   H     16.84000000     9.67000000    52.18000000
   O     16.18000000    12.92000000    50.70000000
   H     16.29000000    13.57000000    51.39000000
   H     17.02000000    12.46000000    50.66000000
   O     12.79000000    13.31000000    50.26000000
   H     12.28000000    13.57000000    49.50000000
   H     12.93000000    14.13000000    50.75000000

Ca 1.00



