%chk=loop2.apoCaM-CA-Ng.Init31.run89.water4.chk
%nprocshared=20
%mem=10GB
%nosave
#b3lyp/svp scf=(tight,noincore,xqc) Test 
#IOP(5/87=12) Density=Current Pop=(MK,readradii) iop(6/33=2) iop(6/42=6)

loop2.apoCaM-CA-Ng.Init31.run89.water4 

   -2  1 
   C     58.25000000    60.58000000    21.33000000
   C     57.46000000    59.57000000    20.52000000
   O     56.24000000    59.62000000    20.64000000
   H     59.16500000    60.83700000    20.79600000
   H     57.65000000    61.47800000    21.47600000
   H     58.50400000    60.15100000    22.29900000
   N     58.09000000    58.66000000    19.77000000
   C     59.42000000    58.83000000    19.22000000
   C     60.42000000    58.00000000    20.01000000
   O     60.59000000    56.80000000    19.82000000
   C     59.49000000    58.47000000    17.74000000
   C     58.69000000    57.26000000    17.27000000
   O     58.58000000    57.21000000    16.03000000
   O     58.18000000    56.51000000    18.13000000
   H     57.58000000    57.88000000    19.39000000
   H     59.77000000    59.86000000    19.26000000
   H     60.50000000    58.48000000    17.33000000
   H     58.88000000    59.28000000    17.32000000
   N     61.09000000    58.66000000    20.97000000
   C     62.07000000    58.07000000    21.86000000
   C     61.59000000    56.86000000    22.65000000
   O     62.47000000    56.31000000    23.31000000
   C     62.67000000    59.20000000    22.69000000
   H     61.02000000    59.66000000    21.04000000
   H     62.81000000    57.62000000    21.20000000
   H     63.10000000    58.77000000    23.60000000
   H     63.55000000    59.57000000    22.16000000
   H     61.87000000    59.87000000    22.98000000
   N     60.30000000    56.58000000    22.83000000
   C     59.86000000    55.51000000    23.70000000
   C     60.08000000    54.14000000    23.08000000
   O     60.28000000    53.99000000    21.87000000
   C     58.41000000    55.64000000    24.15000000
   C     57.38000000    55.62000000    23.03000000
   O     57.63000000    55.78000000    21.82000000
   O     56.18000000    55.54000000    23.35000000
   H     59.57000000    56.98000000    22.26000000
   H     60.46000000    55.53000000    24.61000000
   H     58.30000000    56.57000000    24.71000000
   H     58.23000000    54.76000000    24.77000000
   N     60.38000000    53.18000000    23.96000000
   C     60.53000000    51.79000000    23.58000000
   C     59.22000000    51.12000000    23.20000000
   O     58.15000000    51.23000000    23.79000000
   H     60.36000000    53.35000000    24.95000000
   H     60.94000000    51.27000000    24.45000000
   H     61.25000000    51.79000000    22.76000000
   N     59.30000000    50.16000000    22.27000000
   C     58.15000000    49.46000000    21.73000000
   C     58.58000000    48.08000000    21.27000000
   O     59.39000000    47.85000000    20.37000000
   C     57.47000000    50.22000000    20.59000000
   C     56.94000000    51.59000000    20.96000000
   N     55.67000000    51.66000000    21.37000000
   O     57.59000000    52.62000000    20.78000000
   H     60.22000000    49.98000000    21.91000000
   H     57.35000000    49.36000000    22.46000000
   H     56.64000000    49.68000000    20.13000000
   H     58.29000000    50.41000000    19.89000000
   H     55.11000000    50.85000000    21.58000000
   H     55.19000000    52.54000000    21.46000000
   N     57.89000000    47.10000000    21.86000000
   C     57.99000000    45.68000000    21.57000000
   C     59.19000000    44.99000000    22.20000000
   O     60.23000000    44.71000000    21.61000000
   H     57.21000000    47.40000000    22.53000000
   H     58.15000000    45.63000000    20.49000000
   H     57.02000000    45.22000000    21.73000000
   N     59.10000000    44.60000000    23.48000000
   C     58.05000000    44.59000000    24.48000000
   C     58.44000000    45.30000000    25.77000000
   O     57.49000000    45.65000000    26.47000000
   C     57.59000000    43.18000000    24.83000000
   C     56.96000000    42.42000000    23.66000000
   O     58.74000000    42.43000000    25.13000000
   H     59.90000000    44.02000000    23.67000000
   H     57.22000000    45.22000000    24.16000000
   H     56.89000000    43.20000000    25.67000000
   H     58.41000000    41.69000000    25.64000000
   H     56.74000000    41.38000000    23.89000000
   H     56.04000000    42.94000000    23.37000000
   H     57.45000000    42.61000000    22.71000000
   N     59.73000000    45.51000000    26.06000000
   C     60.28000000    46.18000000    27.22000000
   C     59.89000000    45.52000000    28.53000000
   O     58.81000000    45.80000000    29.06000000
   C     60.13000000    47.70000000    27.28000000
   C     60.53000000    48.46000000    26.02000000
   C     60.87000000    48.25000000    28.50000000
   C     62.01000000    48.39000000    25.65000000
   H     60.32000000    44.99000000    25.43000000
   H     61.37000000    46.15000000    27.11000000
   H     59.07000000    47.81000000    27.49000000
   H     60.20000000    49.47000000    26.23000000
   H     60.02000000    48.13000000    25.12000000
   H     60.53000000    47.76000000    29.41000000
   H     61.94000000    48.05000000    28.46000000
   H     60.65000000    49.31000000    28.60000000
   H     62.61000000    48.83000000    26.45000000
   H     62.41000000    47.39000000    25.49000000
   H     62.15000000    48.93000000    24.72000000
   N     60.68000000    44.61000000    29.10000000
   C     61.97000000    44.16000000    28.63000000
   C     63.05000000    45.01000000    29.29000000
   O     63.99000000    45.37000000    28.59000000
   C     62.24000000    42.72000000    29.04000000
   C     62.06000000    42.28000000    30.49000000
   O     62.61000000    41.22000000    30.87000000
   O     61.32000000    42.91000000    31.28000000
   H     60.36000000    44.20000000    29.97000000
   H     62.02000000    44.23000000    27.54000000
   H     63.26000000    42.44000000    28.76000000
   H     61.52000000    42.18000000    28.43000000
   N     62.99000000    45.34000000    30.58000000
   C     64.02000000    46.02000000    31.34000000
   C     64.43000000    45.19000000    32.55000000
   O     63.67000000    44.35000000    33.02000000
   C     63.57000000    47.45000000    31.62000000
   C     62.58000000    47.58000000    32.76000000
   C     63.00000000    47.60000000    34.09000000
   C     61.21000000    47.56000000    32.50000000
   C     62.09000000    47.56000000    35.15000000
   C     60.28000000    47.62000000    33.55000000
   C     60.72000000    47.62000000    34.88000000
   H     62.17000000    44.91000000    30.99000000
   H     64.83000000    46.21000000    30.62000000
   H     63.10000000    47.84000000    30.71000000
   H     64.32000000    48.23000000    31.78000000
   H     64.05000000    47.67000000    34.34000000
   H     60.82000000    47.42000000    31.50000000
   H     62.45000000    47.58000000    36.17000000
   H     59.25000000    47.82000000    33.30000000
   H     59.98000000    47.72000000    35.66000000
   N     65.62000000    45.34000000    33.14000000
   C     66.58000000    46.36000000    32.78000000
   C     67.30000000    46.12000000    31.46000000
   O     67.04000000    45.10000000    30.83000000
   C     67.49000000    46.52000000    34.00000000
   C     67.50000000    45.08000000    34.50000000
   C     66.10000000    44.52000000    34.24000000
   H     66.13000000    47.35000000    32.70000000
   H     68.45000000    46.91000000    33.65000000
   H     66.98000000    47.12000000    34.75000000
   H     68.20000000    44.60000000    33.82000000
   H     67.80000000    44.97000000    35.54000000
   H     66.07000000    43.47000000    33.96000000
   H     65.47000000    44.68000000    35.11000000
   N     68.19000000    47.01000000    31.00000000
   C     69.07000000    46.83000000    29.87000000
   C     68.96000000    48.07000000    28.99000000
   O     69.95000000    48.33000000    28.32000000
   C     70.48000000    46.49000000    30.35000000
   C     70.56000000    45.24000000    31.22000000
   C     72.00000000    45.01000000    31.66000000
   O     72.66000000    44.14000000    31.06000000
   O     72.53000000    45.85000000    32.43000000
   H     68.39000000    47.86000000    31.50000000
   H     68.66000000    46.01000000    29.29000000
   H     70.92000000    47.35000000    30.87000000
   H     71.01000000    46.18000000    29.45000000
   H     70.16000000    44.34000000    30.75000000
   H     70.02000000    45.45000000    32.14000000
   N     68.03000000    49.02000000    29.05000000
   C     66.65000000    49.07000000    29.50000000
   H     66.00500000    48.62700000    28.74100000
   H     66.55000000    48.51200000    30.43100000
   H     66.35800000    50.10700000    29.66400000
   H     68.38000000    49.86000000    28.61000000
  Ca     58.90000000    54.47000000    19.63000000
   O     60.90000000    54.82000000    17.84000000
   H     61.19000000    53.99000000    17.46000000
   H     61.69000000    55.19000000    18.24000000
   O     55.93000000    54.30000000    19.18000000
   H     55.44000000    53.50000000    18.99000000
   H     55.39000000    55.01000000    18.81000000
   O     58.18000000    53.17000000    17.38000000
   H     58.33000000    52.23000000    17.42000000
   H     58.27000000    53.39000000    16.46000000
   O     60.29000000    52.21000000    19.29000000
   H     61.01000000    51.69000000    19.63000000
   H     59.89000000    51.66000000    18.62000000

Ca 1.00



