%chk=loop4.apoCaM-CA-Ng.Init31.run7.water6.chk
%nprocshared=20
%mem=10GB
%nosave
#b3lyp/svp scf=(tight,noincore,xqc) Test 
#IOP(5/87=12) Density=Current Pop=(MK,readradii) iop(6/33=2) iop(6/42=6)

loop4.apoCaM-CA-Ng.Init31.run7.water6 

   -3  1 
   C     63.24000000    51.09000000    46.14000000
   C     64.65000000    50.52000000    46.08000000
   O     65.15000000    50.14000000    45.02000000
   H     62.56500000    50.34500000    46.56200000
   H     63.23400000    51.98200000    46.76700000
   H     62.91000000    51.35000000    45.13400000
   N     65.42000000    50.35000000    47.16000000
   C     65.14000000    50.54000000    48.57000000
   C     65.88000000    51.67000000    49.28000000
   O     65.70000000    51.80000000    50.49000000
   C     65.27000000    49.22000000    49.31000000
   C     64.74000000    47.98000000    48.60000000
   O     63.56000000    48.08000000    48.20000000
   O     65.39000000    46.99000000    48.20000000
   H     66.29000000    49.87000000    47.00000000
   H     64.08000000    50.80000000    48.65000000
   H     64.80000000    49.19000000    50.30000000
   H     66.35000000    49.08000000    49.38000000
   N     66.73000000    52.49000000    48.67000000
   C     67.60000000    53.48000000    49.29000000
   C     68.59000000    52.83000000    50.25000000
   O     68.82000000    53.33000000    51.34000000
   C     68.24000000    54.34000000    48.21000000
   C     69.08000000    55.33000000    49.01000000
   C     68.93000000    53.57000000    47.09000000
   C     69.54000000    56.53000000    48.18000000
   H     66.90000000    52.39000000    47.68000000
   H     66.89000000    54.04000000    49.90000000
   H     67.44000000    54.90000000    47.73000000
   H     69.95000000    54.83000000    49.41000000
   H     68.42000000    55.69000000    49.80000000
   H     68.28000000    52.86000000    46.58000000
   H     69.29000000    54.27000000    46.34000000
   H     69.84000000    53.09000000    47.45000000
   H     70.30000000    57.08000000    48.73000000
   H     69.82000000    56.29000000    47.15000000
   H     68.65000000    57.14000000    48.03000000
   N     69.15000000    51.67000000    49.88000000
   C     70.16000000    50.90000000    50.58000000
   C     70.15000000    49.39000000    50.45000000
   O     70.95000000    48.79000000    51.16000000
   C     71.53000000    51.40000000    50.14000000
   C     72.73000000    50.90000000    50.92000000
   O     72.77000000    51.19000000    52.14000000
   O     73.68000000    50.27000000    50.41000000
   H     68.91000000    51.36000000    48.95000000
   H     69.94000000    51.14000000    51.63000000
   H     71.49000000    52.49000000    50.13000000
   H     71.80000000    51.22000000    49.10000000
   N     69.25000000    48.79000000    49.67000000
   C     69.34000000    47.35000000    49.50000000
   C     70.38000000    46.91000000    48.48000000
   O     71.01000000    47.70000000    47.77000000
   H     68.53000000    49.28000000    49.16000000
   H     68.40000000    46.88000000    49.22000000
   H     69.64000000    46.80000000    50.39000000
   N     70.52000000    45.60000000    48.30000000
   C     71.43000000    44.97000000    47.37000000
   C     71.97000000    43.68000000    47.97000000
   O     71.42000000    43.22000000    48.97000000
   C     70.73000000    44.72000000    46.04000000
   C     69.34000000    44.11000000    46.10000000
   O     69.26000000    42.88000000    46.28000000
   O     68.31000000    44.82000000    45.98000000
   H     69.89000000    44.97000000    48.78000000
   H     72.29000000    45.61000000    47.15000000
   H     71.34000000    44.17000000    45.31000000
   H     70.49000000    45.70000000    45.62000000
   N     73.13000000    43.13000000    47.60000000
   C     74.00000000    43.50000000    46.50000000
   C     75.20000000    44.35000000    46.92000000
   O     75.50000000    44.42000000    48.11000000
   H     73.45000000    42.43000000    48.25000000
   H     73.47000000    44.18000000    45.83000000
   H     74.30000000    42.62000000    45.94000000
   N     76.01000000    44.83000000    45.98000000
   C     75.74000000    45.26000000    44.62000000
   C     74.81000000    46.46000000    44.50000000
   O     74.10000000    46.79000000    45.44000000
   C     75.42000000    44.14000000    43.63000000
   C     76.30000000    42.91000000    43.77000000
   C     77.70000000    43.08000000    43.19000000
   N     78.66000000    42.38000000    43.80000000
   O     77.97000000    43.81000000    42.25000000
   H     76.78000000    45.28000000    46.45000000
   H     76.70000000    45.65000000    44.28000000
   H     75.40000000    44.50000000    42.60000000
   H     74.41000000    43.76000000    43.76000000
   H     75.92000000    42.07000000    43.18000000
   H     76.29000000    42.59000000    44.81000000
   H     78.43000000    41.65000000    44.47000000
   H     79.61000000    42.52000000    43.49000000
   N     74.74000000    47.22000000    43.40000000
   C     73.76000000    48.23000000    43.05000000
   C     74.30000000    49.35000000    42.17000000
   O     75.19000000    49.17000000    41.34000000
   C     72.49000000    47.71000000    42.40000000
   C     71.58000000    47.01000000    43.41000000
   C     72.81000000    46.68000000    41.31000000
   H     75.44000000    47.04000000    42.69000000
   H     73.40000000    48.68000000    43.98000000
   H     72.04000000    48.59000000    41.93000000
   H     70.65000000    46.76000000    42.89000000
   H     72.00000000    46.06000000    43.73000000
   H     71.41000000    47.73000000    44.21000000
   H     73.43000000    47.13000000    40.54000000
   H     73.47000000    45.91000000    41.71000000
   H     71.91000000    46.28000000    40.85000000
   N     73.81000000    50.58000000    42.36000000
   C     74.16000000    51.74000000    41.56000000
   C     73.13000000    52.08000000    40.49000000
   O     73.40000000    52.08000000    39.29000000
   C     74.59000000    52.85000000    42.51000000
   C     75.48000000    52.26000000    43.60000000
   N     74.90000000    51.99000000    44.78000000
   O     76.70000000    52.32000000    43.43000000
   H     73.28000000    50.72000000    43.20000000
   H     75.07000000    51.48000000    41.02000000
   H     73.82000000    53.40000000    43.04000000
   H     75.27000000    53.55000000    42.03000000
   H     73.92000000    52.11000000    44.96000000
   H     75.49000000    51.70000000    45.55000000
   N     71.92000000    52.47000000    40.91000000
   C     70.80000000    52.86000000    40.08000000
   C     70.28000000    51.70000000    39.23000000
   O     71.02000000    50.88000000    38.70000000
   C     71.15000000    54.19000000    39.43000000
   C     70.07000000    54.89000000    38.64000000
   C     69.72000000    54.40000000    37.37000000
   C     69.44000000    56.02000000    39.18000000
   C     68.70000000    55.01000000    36.63000000
   C     68.48000000    56.66000000    38.40000000
   C     68.06000000    56.16000000    37.15000000
   O     67.10000000    56.79000000    36.42000000
   H     71.72000000    52.20000000    41.86000000
   H     70.01000000    53.07000000    40.80000000
   H     71.93000000    54.01000000    38.68000000
   H     71.46000000    54.81000000    40.26000000
   H     70.28000000    53.60000000    36.92000000
   H     69.67000000    56.33000000    40.19000000
   H     68.50000000    54.62000000    35.64000000
   H     67.97000000    57.44000000    38.94000000
   H     66.97000000    57.62000000    36.89000000
   N     68.96000000    51.61000000    39.10000000
   C     68.31000000    50.60000000    38.28000000
   C     66.87000000    50.56000000    38.76000000
   O     65.94000000    51.12000000    38.19000000
   C     68.42000000    50.95000000    36.80000000
   C     68.04000000    49.77000000    35.91000000
   C     68.06000000    50.09000000    34.42000000
   O     67.12000000    50.67000000    33.84000000
   O     69.12000000    49.90000000    33.78000000
   H     68.43000000    52.40000000    39.43000000
   H     68.82000000    49.65000000    38.43000000
   H     69.48000000    51.10000000    36.57000000
   H     67.80000000    51.82000000    36.62000000
   H     67.06000000    49.42000000    36.22000000
   H     68.72000000    48.93000000    36.05000000
   N     66.59000000    49.92000000    39.90000000
   C     65.35000000    49.91000000    40.65000000
   C     65.19000000    51.26000000    41.35000000
   O     64.08000000    51.78000000    41.29000000
   C     65.23000000    48.75000000    41.63000000
   C     64.62000000    47.59000000    40.85000000
   C     64.54000000    46.37000000    41.76000000
   O     63.45000000    46.11000000    42.32000000
   O     65.57000000    45.74000000    42.10000000
   H     67.39000000    49.57000000    40.41000000
   H     64.48000000    49.85000000    39.99000000
   H     64.53000000    49.05000000    42.42000000
   H     66.14000000    48.45000000    42.14000000
   H     65.30000000    47.28000000    40.06000000
   H     63.63000000    47.81000000    40.46000000
   N     66.19000000    51.83000000    42.01000000
   C     66.21000000    53.20000000    42.47000000
   H     66.38800000    53.86400000    41.62400000
   H     65.25100000    53.44400000    42.92800000
   H     67.00600000    53.32600000    43.20400000
   H     67.13000000    51.44000000    42.00000000
  Ca     63.41000000    45.61000000    47.10000000
   O     64.24000000    47.18000000    45.06000000
   H     64.46000000    46.81000000    44.20000000
   H     64.86000000    47.91000000    45.17000000
   O     65.82000000    44.54000000    46.10000000
   H     66.76000000    44.70000000    46.17000000
   H     65.69000000    44.24000000    45.20000000
   O     62.84000000    45.95000000    49.88000000
   H     63.24000000    46.51000000    50.55000000
   H     62.04000000    45.62000000    50.29000000
   O     63.90000000    43.40000000    48.80000000
   H     63.81000000    42.65000000    48.21000000
   H     63.68000000    43.05000000    49.66000000
   O     60.95000000    43.92000000    47.04000000
   H     60.54000000    43.52000000    47.80000000
   H     60.54000000    44.78000000    46.97000000
   O     62.78000000    44.45000000    44.66000000
   H     62.42000000    43.67000000    44.25000000
   H     62.99000000    45.03000000    43.93000000

Ca 1.00



