%chk=loop3.apoCaM-CA-Ng.Init293.run12.water4.chk
%nprocshared=20
%mem=10GB
%nosave
#b3lyp/svp scf=(tight,noincore,xqc) Test 
#IOP(5/87=12) Density=Current Pop=(MK,readradii) iop(6/33=2) iop(6/42=6)

loop3.apoCaM-CA-Ng.Init293.run12.water4 

   0  1 
   C     65.41000000    35.09000000    23.98000000
   C     65.92000000    36.37000000    23.35000000
   O     65.16000000    37.29000000    23.04000000
   H     64.41900000    34.86200000    23.58700000
   H     66.09100000    34.27200000    23.74400000
   H     65.35200000    35.21500000    25.06100000
   N     67.25000000    36.52000000    23.26000000
   C     67.96000000    37.76000000    23.03000000
   C     67.82000000    38.49000000    21.70000000
   O     68.66000000    39.37000000    21.50000000
   C     67.81000000    38.72000000    24.20000000
   C     69.10000000    39.30000000    24.76000000
   O     69.10000000    40.54000000    24.95000000
   O     70.10000000    38.58000000    24.98000000
   H     67.83000000    35.70000000    23.37000000
   H     68.99000000    37.39000000    22.99000000
   H     67.35000000    38.14000000    24.99000000
   H     67.10000000    39.51000000    23.99000000
   N     66.77000000    38.18000000    20.93000000
   C     66.55000000    38.72000000    19.61000000
   C     66.57000000    40.24000000    19.50000000
   O     66.75000000    40.71000000    18.38000000
   C     65.29000000    38.08000000    19.04000000
   C     64.03000000    38.42000000    19.82000000
   C     62.77000000    37.75000000    19.27000000
   C     61.43000000    38.19000000    19.86000000
   N     61.22000000    39.61000000    19.54000000
   H     66.14000000    37.46000000    21.26000000
   H     67.39000000    38.46000000    18.96000000
   H     65.41000000    37.00000000    19.01000000
   H     65.07000000    38.40000000    18.02000000
   H     63.94000000    39.51000000    19.87000000
   H     64.18000000    38.01000000    20.82000000
   H     62.83000000    36.68000000    19.50000000
   H     62.78000000    37.94000000    18.20000000
   H     61.33000000    38.04000000    20.94000000
   H     60.67000000    37.63000000    19.32000000
   H     61.97000000    40.12000000    19.99000000
   H     61.27000000    39.67000000    18.54000000
   H     60.37000000    39.97000000    19.94000000
   N     66.49000000    41.00000000    20.59000000
   C     66.72000000    42.43000000    20.50000000
   C     67.28000000    43.02000000    21.78000000
   O     66.83000000    42.78000000    22.90000000
   C     65.42000000    43.14000000    20.11000000
   C     65.59000000    44.63000000    19.84000000
   O     64.61000000    45.35000000    20.13000000
   O     66.70000000    45.11000000    19.51000000
   H     66.58000000    40.48000000    21.45000000
   H     67.49000000    42.67000000    19.77000000
   H     64.78000000    43.03000000    20.98000000
   H     65.10000000    42.71000000    19.16000000
   N     68.31000000    43.85000000    21.64000000
   C     68.85000000    44.75000000    22.64000000
   C     67.75000000    45.74000000    22.99000000
   O     67.08000000    46.30000000    22.12000000
   H     68.67000000    43.99000000    20.71000000
   H     69.58000000    45.32000000    22.05000000
   H     69.33000000    44.29000000    23.50000000
   N     67.64000000    46.01000000    24.29000000
   C     66.65000000    46.92000000    24.82000000
   C     67.29000000    47.87000000    25.83000000
   O     66.61000000    48.69000000    26.44000000
   C     65.52000000    46.06000000    25.38000000
   C     64.64000000    45.24000000    24.44000000
   N     64.33000000    45.86000000    23.30000000
   O     64.30000000    44.08000000    24.65000000
   H     68.21000000    45.53000000    24.98000000
   H     66.31000000    47.58000000    24.03000000
   H     64.83000000    46.82000000    25.75000000
   H     65.83000000    45.53000000    26.28000000
   H     64.76000000    46.75000000    23.14000000
   H     63.79000000    45.40000000    22.58000000
   N     68.59000000    47.76000000    26.12000000
   C     69.24000000    48.52000000    27.16000000
   C     68.80000000    48.05000000    28.54000000
   O     68.27000000    46.96000000    28.75000000
   H     69.12000000    47.00000000    25.71000000
   H     69.12000000    49.58000000    26.94000000
   H     70.30000000    48.34000000    26.98000000
   N     68.87000000    48.98000000    29.49000000
   C     68.12000000    49.00000000    30.73000000
   C     66.63000000    48.68000000    30.67000000
   O     65.89000000    48.87000000    31.63000000
   C     68.84000000    48.40000000    31.93000000
   C     70.30000000    48.71000000    32.16000000
   C     71.35000000    47.86000000    31.80000000
   C     70.62000000    49.90000000    32.81000000
   C     72.66000000    48.28000000    32.01000000
   C     71.91000000    50.45000000    32.92000000
   C     72.93000000    49.57000000    32.51000000
   O     74.23000000    49.94000000    32.69000000
   H     69.21000000    49.87000000    29.16000000
   H     67.98000000    50.05000000    30.98000000
   H     68.77000000    47.32000000    31.80000000
   H     68.29000000    48.58000000    32.85000000
   H     71.19000000    46.92000000    31.27000000
   H     69.83000000    50.59000000    33.09000000
   H     73.49000000    47.63000000    31.74000000
   H     72.00000000    51.46000000    33.27000000
   H     74.34000000    50.86000000    32.94000000
   N     66.05000000    48.35000000    29.51000000
   C     64.66000000    48.26000000    29.14000000
   C     63.85000000    49.55000000    29.25000000
   O     63.23000000    49.80000000    28.22000000
   C     63.97000000    47.02000000    29.70000000
   C     64.89000000    45.81000000    29.68000000
   C     62.54000000    46.94000000    29.17000000
   C     64.20000000    44.45000000    29.66000000
   H     66.66000000    48.18000000    28.72000000
   H     64.72000000    48.17000000    28.06000000
   H     63.80000000    47.14000000    30.77000000
   H     65.57000000    45.88000000    30.53000000
   H     65.42000000    45.75000000    28.73000000
   H     62.38000000    46.68000000    28.12000000
   H     62.02000000    46.13000000    29.68000000
   H     61.97000000    47.84000000    29.41000000
   H     63.49000000    44.46000000    28.83000000
   H     64.92000000    43.63000000    29.61000000
   H     63.56000000    44.45000000    30.54000000
   N     63.95000000    50.37000000    30.30000000
   C     63.35000000    51.69000000    30.24000000
   C     61.84000000    51.73000000    30.04000000
   O     61.28000000    52.75000000    29.64000000
   C     63.72000000    52.58000000    31.43000000
   O     65.08000000    52.60000000    31.79000000
   H     64.50000000    50.10000000    31.10000000
   H     63.80000000    52.24000000    29.42000000
   H     63.21000000    52.22000000    32.32000000
   H     63.49000000    53.60000000    31.13000000
   H     65.50000000    52.40000000    30.95000000
   N     61.16000000    50.62000000    30.36000000
   C     59.82000000    50.26000000    29.93000000
   C     59.53000000    50.41000000    28.45000000
   O     58.38000000    50.68000000    28.09000000
   C     58.78000000    50.96000000    30.80000000
   H     61.79000000    49.85000000    30.55000000
   H     59.66000000    49.19000000    30.01000000
   H     57.87000000    50.37000000    30.73000000
   H     59.18000000    51.05000000    31.81000000
   H     58.47000000    51.90000000    30.35000000
   N     60.52000000    50.28000000    27.56000000
   C     60.41000000    50.40000000    26.13000000
   C     60.48000000    49.07000000    25.39000000
   O     60.93000000    48.08000000    25.95000000
   C     61.25000000    51.57000000    25.61000000
   H     61.43000000    50.04000000    27.93000000
   H     59.40000000    50.70000000    25.84000000
   H     60.72000000    52.44000000    25.99000000
   H     62.25000000    51.48000000    26.02000000
   H     61.17000000    51.68000000    24.52000000
   N     60.04000000    49.08000000    24.13000000
   C     60.09000000    47.96000000    23.21000000
   C     59.28000000    46.73000000    23.62000000
   O     59.34000000    45.68000000    22.99000000
   C     61.49000000    47.57000000    22.76000000
   C     62.24000000    48.80000000    22.26000000
   C     63.49000000    48.43000000    21.48000000
   O     64.57000000    48.29000000    22.09000000
   O     63.53000000    48.50000000    20.23000000
   H     59.73000000    49.97000000    23.78000000
   H     59.63000000    48.37000000    22.31000000
   H     61.50000000    46.79000000    22.00000000
   H     61.98000000    47.11000000    23.62000000
   H     62.57000000    49.47000000    23.06000000
   H     61.49000000    49.30000000    21.64000000
   N     58.41000000    46.84000000    24.63000000
   C     57.79000000    45.75000000    25.36000000
   H     56.80000000    45.55400000    24.94800000
   H     58.40400000    44.85400000    25.26800000
   H     57.69800000    46.02200000    26.41200000
   H     58.35000000    47.77000000    25.01000000
  Ca     66.07000000    47.77000000    20.07000000
   O     67.62000000    49.11000000    18.21000000
   H     67.24000000    49.65000000    17.51000000
   H     68.55000000    49.32000000    18.19000000
   O     66.12000000    50.40000000    20.75000000
   H     66.42000000    50.65000000    21.63000000
   H     66.02000000    51.24000000    20.29000000
   O     65.37000000    47.21000000    17.62000000
   H     64.83000000    46.58000000    17.13000000
   H     66.00000000    47.54000000    16.98000000
   O     68.43000000    48.71000000    21.08000000
   H     68.96000000    48.19000000    21.69000000
   H     68.94000000    49.51000000    20.95000000

Ca 1.00



