%chk=loop4.holoCaM-CaMKII.run40.water2.chk
%nprocshared=20
%mem=10GB
%nosave
#b3lyp/svp scf=(tight,noincore,xqc) Test 
#IOP(5/87=12) Density=Current Pop=(MK,readradii) iop(6/33=2) iop(6/42=6)

loop4.holoCaM-CaMKII.run40.water2 

   -3  1 
   C    100.79000000    48.60000000     8.66500000
   C    100.86000000    48.84000000    10.16500000
   O    100.03000000    49.57000000    10.69500000
   H    100.53800000    49.53200000     8.16000000
   H    101.75600000    48.24300000     8.30800000
   H    100.02500000    47.85400000     8.45100000
   N    101.92000000    48.42000000    10.87500000
   C    102.05000000    48.68000000    12.29500000
   C    102.51000000    50.13000000    12.42500000
   O    103.54000000    50.52000000    11.87500000
   C    103.07000000    47.70000000    12.86500000
   C    103.35000000    47.95000000    14.33500000
   O    102.64000000    48.73000000    15.01500000
   O    104.28000000    47.30000000    14.85500000
   H    102.66000000    47.94000000    10.38500000
   H    101.08000000    48.45000000    12.73500000
   H    104.00000000    47.84000000    12.31500000
   H    102.82000000    46.66000000    12.67500000
   N    101.74000000    50.89000000    13.20500000
   C    101.95000000    52.33000000    13.25500000
   C    102.89000000    52.80000000    14.35500000
   O    103.40000000    53.92000000    14.24500000
   C    100.67000000    53.14000000    13.12500000
   C     99.92000000    53.17000000    14.44500000
   C     99.91000000    52.80000000    11.84500000
   C     98.65000000    54.02000000    14.52500000
   H    100.95000000    50.54000000    13.73500000
   H    102.55000000    52.67000000    12.41500000
   H    100.96000000    54.18000000    12.99500000
   H    100.52000000    53.55000000    15.27500000
   H     99.75000000    52.15000000    14.78500000
   H     99.16000000    53.55000000    11.58500000
   H    100.54000000    52.90000000    10.96500000
   H     99.37000000    51.85000000    11.97500000
   H     97.86000000    53.51000000    13.95500000
   H     98.42000000    54.17000000    15.57500000
   H     98.77000000    54.97000000    14.01500000
   N    103.07000000    51.96000000    15.37500000
   C    103.78000000    52.27000000    16.60500000
   C    104.84000000    51.29000000    17.07500000
   O    105.66000000    51.67000000    17.91500000
   C    102.77000000    52.56000000    17.71500000
   C    101.74000000    51.50000000    18.06500000
   O    101.61000000    50.50000000    17.32500000
   O    100.91000000    51.72000000    18.97500000
   H    102.40000000    51.21000000    15.45500000
   H    104.47000000    53.09000000    16.40500000
   H    102.31000000    53.53000000    17.56500000
   H    103.36000000    52.64000000    18.63500000
   N    104.87000000    50.05000000    16.58500000
   C    106.03000000    49.20000000    16.74500000
   C    105.94000000    48.15000000    17.84500000
   O    106.73000000    48.19000000    18.78500000
   H    104.05000000    49.64000000    16.14500000
   H    106.87000000    49.88000000    16.88500000
   H    106.10000000    48.68000000    15.79500000
   N    105.08000000    47.14000000    17.69500000
   C    104.92000000    45.90000000    18.43500000
   C    104.98000000    44.70000000    17.50500000
   O    105.21000000    43.61000000    18.01500000
   C    103.57000000    45.97000000    19.13500000
   C    102.43000000    46.76000000    18.49500000
   O    101.68000000    47.51000000    19.14500000
   O    102.24000000    46.45000000    17.29500000
   H    104.55000000    47.19000000    16.83500000
   H    105.69000000    45.73000000    19.18500000
   H    103.73000000    46.41000000    20.11500000
   H    103.19000000    44.96000000    19.29500000
   N    104.89000000    44.83000000    16.17500000
   C    104.69000000    43.71000000    15.28500000
   C    103.25000000    43.23000000    15.18500000
   O    103.03000000    42.13000000    14.67500000
   H    104.82000000    45.73000000    15.71500000
   H    105.28000000    42.87000000    15.63500000
   H    105.03000000    44.01000000    14.28500000
   N    102.26000000    44.00000000    15.65500000
   C    100.87000000    43.60000000    15.55500000
   C    100.10000000    44.82000000    15.03500000
   O    100.39000000    45.96000000    15.40500000
   C    100.28000000    43.16000000    16.88500000
   C    100.66000000    41.73000000    17.25500000
   C     99.99000000    41.18000000    18.50500000
   N    100.33000000    41.64000000    19.71500000
   O     98.99000000    40.48000000    18.36500000
   H    102.40000000    44.97000000    15.89500000
   H    100.77000000    42.88000000    14.74500000
   H     99.20000000    43.29000000    16.88500000
   H    100.76000000    43.78000000    17.64500000
   H    101.74000000    41.58000000    17.39500000
   H    100.44000000    41.05000000    16.43500000
   H    101.12000000    42.25000000    19.85500000
   H     99.80000000    41.26000000    20.49500000
   N     99.06000000    44.55000000    14.25500000
   C     98.31000000    45.50000000    13.46500000
   C     96.85000000    45.34000000    13.85500000
   O     96.18000000    44.40000000    13.41500000
   C     98.49000000    45.19000000    11.98500000
   C     97.77000000    46.22000000    11.11500000
   C     99.96000000    45.18000000    11.56500000
   H     99.01000000    43.62000000    13.85500000
   H     98.69000000    46.52000000    13.60500000
   H     98.13000000    44.19000000    11.75500000
   H     97.79000000    45.82000000    10.10500000
   H     96.69000000    46.22000000    11.26500000
   H     98.26000000    47.19000000    11.27500000
   H     99.91000000    45.16000000    10.47500000
   H    100.50000000    46.09000000    11.84500000
   H    100.37000000    44.23000000    11.89500000
   N     96.41000000    46.26000000    14.72500000
   C     95.03000000    46.39000000    15.15500000
   C     94.14000000    46.96000000    14.06500000
   O     94.68000000    47.56000000    13.13500000
   C     95.07000000    47.33000000    16.34500000
   C     93.73000000    47.50000000    17.03500000
   N     93.37000000    46.53000000    17.88500000
   O     92.89000000    48.38000000    16.87500000
   H     97.09000000    46.90000000    15.09500000
   H     94.67000000    45.42000000    15.48500000
   H     95.41000000    48.33000000    16.07500000
   H     95.74000000    46.98000000    17.13500000
   H     93.96000000    45.76000000    18.15500000
   H     92.43000000    46.67000000    18.23500000
   N     92.82000000    46.77000000    14.17500000
   C     91.92000000    47.31000000    13.17500000
   C     91.95000000    48.82000000    12.97500000
   O     91.71000000    49.27000000    11.85500000
   C     90.54000000    46.83000000    13.60500000
   C     89.33000000    47.21000000    12.78500000
   C     89.38000000    46.94000000    11.40500000
   C     88.17000000    47.75000000    13.35500000
   C     88.35000000    47.38000000    10.57500000
   C     87.11000000    48.09000000    12.50500000
   C     87.20000000    48.01000000    11.09500000
   O     86.28000000    48.49000000    10.20500000
   H     92.45000000    46.18000000    14.90500000
   H     92.16000000    46.73000000    12.28500000
   H     90.31000000    47.29000000    14.56500000
   H     90.56000000    45.77000000    13.83500000
   H     90.30000000    46.62000000    10.94500000
   H     88.11000000    47.86000000    14.42500000
   H     88.47000000    47.31000000     9.50500000
   H     86.26000000    48.66000000    12.84500000
   H     85.46000000    48.58000000    10.70500000
   N     92.34000000    49.63000000    13.96500000
   C     92.69000000    51.02000000    13.74500000
   C     93.86000000    51.22000000    12.79500000
   O     93.90000000    52.23000000    12.10500000
   C     92.97000000    51.60000000    15.12500000
   C     91.64000000    51.74000000    15.87500000
   C     91.87000000    52.51000000    17.16500000
   O     92.75000000    52.13000000    17.97500000
   O     91.23000000    53.56000000    17.36500000
   H     92.37000000    49.24000000    14.90500000
   H     91.75000000    51.44000000    13.37500000
   H     93.30000000    52.63000000    14.95500000
   H     93.76000000    51.03000000    15.60500000
   H     91.33000000    50.73000000    16.13500000
   H     90.90000000    52.30000000    15.30500000
   N     94.78000000    50.26000000    12.72500000
   C     95.95000000    50.38000000    11.87500000
   C     95.66000000    49.80000000    10.49500000
   O     96.15000000    50.34000000     9.50500000
   C     97.09000000    49.74000000    12.67500000
   C     97.24000000    50.21000000    14.12500000
   C     98.37000000    49.50000000    14.86500000
   O     99.58000000    49.75000000    14.72500000
   O     98.07000000    48.53000000    15.58500000
   H     94.71000000    49.46000000    13.34500000
   H     96.16000000    51.43000000    11.71500000
   H     98.01000000    50.07000000    12.18500000
   H     96.95000000    48.66000000    12.67500000
   H     96.32000000    50.05000000    14.68500000
   H     97.49000000    51.27000000    14.03500000
   N     94.80000000    48.79000000    10.35500000
   C     94.30000000    48.24000000     9.11500000
   H     93.41300000    48.79200000     8.80500000
   H     95.06700000    48.32400000     8.34500000
   H     94.04200000    47.19100000     9.26000000
   H     94.53000000    48.43000000    11.25500000
  Ca    100.52500000    48.33000000    16.67000000
   O     98.72000000    50.02000000    18.21000000
   H     97.79000000    50.27000000    18.22000000
   H     99.17000000    50.73000000    18.66000000
   O     99.26000000    46.89000000    18.77000000
   H    100.15000000    47.05000000    19.08000000
   H     98.80000000    46.51000000    19.52000000

Ca 1.00



