%chk=loop2.apoCaM-CA-Ng.Init295.run67.water4.chk
%nprocshared=20
%mem=10GB
%nosave
#b3lyp/svp scf=(tight,noincore,xqc) Test 
#IOP(5/87=12) Density=Current Pop=(MK,readradii) iop(6/33=2) iop(6/42=6)

loop2.apoCaM-CA-Ng.Init295.run67.water4 

   -2  1 
   C    102.20000000     9.50000000    23.72000000
   C    102.33000000    11.00000000    23.90000000
   O    101.64000000    11.88000000    23.37000000
   H    101.31800000     9.28200000    23.11900000
   H    103.08700000     9.11600000    23.21600000
   H    102.10100000     9.02400000    24.69500000
   N    103.27000000    11.43000000    24.74000000
   C    103.87000000    12.75000000    24.81000000
   C    103.73000000    13.40000000    26.18000000
   O    104.70000000    13.93000000    26.71000000
   C    105.29000000    12.79000000    24.24000000
   C    105.82000000    14.19000000    24.01000000
   O    107.04000000    14.39000000    23.81000000
   O    105.02000000    15.15000000    24.03000000
   H    103.82000000    10.68000000    25.13000000
   H    103.30000000    13.41000000    24.17000000
   H    105.28000000    12.39000000    23.22000000
   H    105.97000000    12.29000000    24.93000000
   N    102.65000000    13.07000000    26.88000000
   C    102.18000000    13.66000000    28.12000000
   C    101.33000000    12.73000000    28.96000000
   O    100.87000000    11.76000000    28.36000000
   C    101.43000000    14.95000000    27.79000000
   H    102.06000000    12.39000000    26.42000000
   H    103.05000000    14.02000000    28.68000000
   H    102.10000000    15.58000000    27.21000000
   H    100.61000000    14.71000000    27.12000000
   H    101.06000000    15.42000000    28.70000000
   N    101.33000000    12.85000000    30.29000000
   C    101.55000000    14.01000000    31.13000000
   C    102.30000000    13.65000000    32.40000000
   O    101.95000000    12.64000000    33.01000000
   C    100.19000000    14.59000000    31.51000000
   C    100.19000000    16.08000000    31.83000000
   O    101.18000000    16.51000000    32.46000000
   O     99.24000000    16.80000000    31.46000000
   H    100.78000000    12.11000000    30.72000000
   H    102.13000000    14.80000000    30.66000000
   H     99.91000000    13.96000000    32.35000000
   H     99.46000000    14.33000000    30.74000000
   N    103.29000000    14.47000000    32.75000000
   C    104.02000000    14.27000000    33.98000000
   C    105.25000000    13.39000000    33.83000000
   O    106.11000000    13.67000000    32.99000000
   H    103.48000000    15.35000000    32.29000000
   H    103.30000000    13.89000000    34.71000000
   H    104.33000000    15.27000000    34.25000000
   N    105.51000000    12.45000000    34.74000000
   C    104.93000000    12.24000000    36.05000000
   C    103.78000000    11.25000000    36.08000000
   O    103.47000000    10.60000000    37.08000000
   C    106.02000000    11.96000000    37.09000000
   C    105.50000000    12.02000000    38.52000000
   N    105.87000000    11.07000000    39.38000000
   O    104.94000000    13.05000000    38.90000000
   H    106.38000000    11.95000000    34.56000000
   H    104.56000000    13.18000000    36.44000000
   H    106.90000000    12.59000000    36.95000000
   H    106.47000000    10.99000000    36.90000000
   H    106.36000000    10.27000000    39.00000000
   H    105.83000000    11.22000000    40.37000000
   N    103.16000000    11.04000000    34.92000000
   C    101.96000000    10.24000000    34.83000000
   C    100.81000000    10.97000000    35.52000000
   O    100.14000000    10.42000000    36.39000000
   H    103.41000000    11.66000000    34.16000000
   H    102.24000000     9.30000000    35.32000000
   H    101.83000000     9.97000000    33.78000000
   N    100.68000000    12.28000000    35.36000000
   C     99.80000000    13.15000000    36.12000000
   C     98.72000000    13.56000000    35.11000000
   O     98.85000000    14.59000000    34.46000000
   C    100.66000000    14.33000000    36.57000000
   C    100.00000000    15.33000000    37.51000000
   O    101.85000000    14.01000000    37.25000000
   H    101.14000000    12.66000000    34.55000000
   H     99.29000000    12.60000000    36.91000000
   H    100.99000000    14.89000000    35.69000000
   H    102.42000000    14.77000000    37.23000000
   H     99.26000000    14.90000000    38.19000000
   H    100.72000000    15.86000000    38.13000000
   H     99.49000000    15.98000000    36.80000000
   N     97.69000000    12.74000000    34.93000000
   C     96.74000000    12.64000000    33.84000000
   C     95.34000000    12.90000000    34.39000000
   O     95.06000000    12.52000000    35.53000000
   C     96.86000000    11.30000000    33.12000000
   C     98.26000000    11.12000000    32.55000000
   C     96.50000000    10.05000000    33.93000000
   C     98.50000000     9.89000000    31.67000000
   H     97.64000000    12.01000000    35.64000000
   H     97.01000000    13.43000000    33.14000000
   H     96.19000000    11.34000000    32.26000000
   H     99.03000000    11.20000000    33.32000000
   H     98.39000000    12.01000000    31.94000000
   H     97.21000000    10.12000000    34.76000000
   H     95.55000000    10.22000000    34.43000000
   H     96.51000000     9.07000000    33.46000000
   H     98.38000000     9.00000000    32.28000000
   H     97.75000000     9.86000000    30.88000000
   H     99.54000000    10.05000000    31.40000000
   N     94.52000000    13.60000000    33.60000000
   C     93.13000000    13.90000000    33.85000000
   C     92.18000000    13.24000000    32.87000000
   O     92.27000000    13.34000000    31.65000000
   C     93.01000000    15.42000000    33.78000000
   C     94.12000000    16.18000000    34.50000000
   O     94.14000000    16.10000000    35.74000000
   O     94.99000000    16.70000000    33.77000000
   H     94.89000000    13.86000000    32.70000000
   H     92.88000000    13.60000000    34.87000000
   H     92.10000000    15.70000000    34.32000000
   H     92.99000000    15.76000000    32.75000000
   N     91.29000000    12.46000000    33.48000000
   C     90.18000000    11.79000000    32.83000000
   C     90.62000000    10.99000000    31.61000000
   O     91.52000000    10.15000000    31.70000000
   C     89.35000000    10.95000000    33.80000000
   C     88.39000000     9.88000000    33.30000000
   C     88.78000000     8.62000000    32.83000000
   C     87.04000000    10.06000000    33.59000000
   C     87.82000000     7.68000000    32.47000000
   C     86.06000000     9.09000000    33.34000000
   C     86.45000000     7.92000000    32.68000000
   H     91.29000000    12.47000000    34.49000000
   H     89.55000000    12.63000000    32.53000000
   H     89.00000000    11.73000000    34.47000000
   H     90.01000000    10.37000000    34.44000000
   H     89.80000000     8.27000000    32.71000000
   H     86.65000000    10.97000000    34.04000000
   H     88.13000000     6.70000000    32.13000000
   H     85.07000000     9.26000000    33.73000000
   H     85.71000000     7.18000000    32.43000000
   N     90.11000000    11.34000000    30.43000000
   C     90.52000000    10.75000000    29.17000000
   C     91.98000000    10.70000000    28.72000000
   O     92.37000000     9.97000000    27.81000000
   C     89.69000000    11.40000000    28.06000000
   C     88.42000000    11.55000000    28.90000000
   C     88.91000000    12.12000000    30.22000000
   H     90.26000000     9.70000000    29.22000000
   H     90.19000000    12.34000000    27.87000000
   H     89.63000000    10.75000000    27.19000000
   H     87.80000000    12.37000000    28.51000000
   H     87.83000000    10.64000000    28.95000000
   H     89.03000000    13.20000000    30.13000000
   H     88.18000000    11.86000000    30.99000000
   N     92.78000000    11.57000000    29.34000000
   C     94.20000000    11.71000000    29.07000000
   C     95.00000000    10.51000000    29.56000000
   O     96.04000000    10.20000000    28.99000000
   C     94.67000000    12.96000000    29.81000000
   C     96.11000000    13.38000000    29.56000000
   C     96.27000000    14.75000000    30.21000000
   O     96.41000000    14.85000000    31.45000000
   O     96.17000000    15.79000000    29.53000000
   H     92.41000000    11.99000000    30.18000000
   H     94.27000000    11.83000000    27.99000000
   H     94.54000000    12.80000000    30.88000000
   H     94.02000000    13.81000000    29.57000000
   H     96.36000000    13.31000000    28.50000000
   H     96.80000000    12.80000000    30.17000000
   N     94.43000000     9.70000000    30.46000000
   C     94.82000000     8.33000000    30.74000000
   H     95.75600000     8.32600000    31.29800000
   H     94.04400000     7.84400000    31.33100000
   H     94.95400000     7.79100000    29.80200000
   H     93.55000000     9.97000000    30.87000000
  Ca     96.78000000    17.43000000    31.87000000
   O     97.33000000    18.75000000    29.59000000
   H     96.82000000    18.69000000    28.79000000
   H     98.23000000    18.89000000    29.30000000
   O     97.86000000    17.19000000    34.39000000
   H     98.05000000    17.53000000    35.26000000
   H     98.12000000    16.27000000    34.42000000
   O     99.30000000    19.45000000    32.12000000
   H     99.60000000    18.56000000    32.28000000
   H    100.09000000    19.95000000    31.92000000
   O     94.24000000    17.86000000    31.08000000
   H     93.57000000    17.17000000    31.05000000
   H     93.84000000    18.61000000    30.66000000

Ca 1.00



