%chk=loop2.holoCaM.run38.water1.chk
%nprocshared=20
%mem=10GB
%nosave
#b3lyp/svp scf=(tight,noincore,xqc) Test 
#IOP(5/87=12) Density=Current Pop=(MK,readradii) iop(6/33=2) iop(6/42=6)

loop2.holoCaM.run38.water1 

   -2  1 
   C     68.01000000    78.18000000   111.06000000
   C     68.79000000    78.66000000   112.27000000
   O     70.02000000    78.63000000   112.23000000
   H     67.10900000    78.78300000   110.94700000
   H     68.62700000    78.27900000   110.16700000
   H     67.73200000    77.13500000   111.19700000
   N     68.10000000    79.20000000   113.28000000
   C     68.72000000    79.53000000   114.55000000
   C     69.41000000    78.27000000   115.05000000
   O     68.76000000    77.24000000   115.18000000
   C     67.63000000    80.00000000   115.50000000
   C     68.15000000    80.19000000   116.92000000
   O     69.38000000    80.22000000   117.13000000
   O     67.34000000    80.34000000   117.87000000
   H     67.10000000    79.30000000   113.16000000
   H     69.40000000    80.39000000   114.54000000
   H     66.77000000    79.34000000   115.55000000
   H     67.22000000    80.93000000   115.11000000
   N     70.70000000    78.31000000   115.38000000
   C     71.45000000    77.13000000   115.74000000
   C     71.55000000    76.92000000   117.24000000
   O     71.92000000    75.85000000   117.73000000
   C     72.90000000    77.28000000   115.29000000
   H     71.20000000    79.19000000   115.29000000
   H     71.06000000    76.21000000   115.31000000
   H     72.93000000    77.46000000   114.21000000
   H     73.36000000    78.19000000   115.67000000
   H     73.46000000    76.40000000   115.61000000
   N     71.27000000    77.94000000   118.06000000
   C     71.27000000    77.76000000   119.50000000
   C     69.95000000    77.17000000   119.98000000
   O     69.80000000    76.58000000   121.05000000
   C     71.71000000    79.06000000   120.16000000
   C     72.73000000    80.00000000   119.54000000
   O     72.33000000    81.08000000   119.06000000
   O     73.92000000    79.64000000   119.38000000
   H     70.96000000    78.81000000   117.66000000
   H     72.07000000    77.06000000   119.73000000
   H     72.05000000    78.88000000   121.18000000
   H     70.75000000    79.57000000   120.07000000
   N     68.87000000    77.58000000   119.32000000
   C     67.51000000    77.59000000   119.84000000
   C     67.16000000    78.72000000   120.80000000
   O     66.21000000    78.62000000   121.57000000
   H     68.97000000    78.09000000   118.46000000
   H     67.25000000    76.67000000   120.36000000
   H     66.79000000    77.74000000   119.04000000
   N     67.88000000    79.84000000   120.74000000
   C     67.69000000    80.92000000   121.69000000
   C     66.49000000    81.75000000   121.29000000
   O     65.88000000    82.32000000   122.19000000
   C     68.99000000    81.72000000   121.76000000
   C     69.07000000    82.79000000   120.68000000
   N     68.90000000    84.08000000   120.98000000
   O     69.40000000    82.44000000   119.55000000
   H     68.52000000    79.93000000   119.96000000
   H     67.47000000    80.50000000   122.67000000
   H     69.77000000    80.95000000   121.69000000
   H     69.10000000    82.07000000   122.79000000
   H     68.90000000    84.38000000   121.95000000
   H     68.90000000    84.75000000   120.22000000
   N     66.16000000    81.83000000   120.00000000
   C     65.05000000    82.59000000   119.46000000
   C     65.30000000    83.74000000   118.49000000
   O     64.32000000    84.40000000   118.16000000
   H     66.50000000    81.14000000   119.35000000
   H     64.58000000    83.16000000   120.26000000
   H     64.30000000    81.92000000   119.06000000
   N     66.54000000    84.06000000   118.12000000
   C     67.04000000    85.19000000   117.37000000
   C     68.15000000    84.70000000   116.44000000
   O     68.70000000    83.65000000   116.77000000
   C     67.35000000    86.48000000   118.13000000
   C     66.17000000    87.16000000   118.83000000
   O     68.43000000    86.23000000   119.00000000
   H     67.24000000    83.55000000   118.64000000
   H     66.24000000    85.48000000   116.69000000
   H     67.78000000    87.23000000   117.46000000
   H     68.72000000    87.05000000   119.39000000
   H     66.46000000    88.16000000   119.16000000
   H     65.35000000    87.10000000   118.11000000
   H     65.90000000    86.63000000   119.74000000
   N     68.46000000    85.57000000   115.49000000
   C     69.29000000    85.20000000   114.36000000
   C     70.65000000    85.88000000   114.47000000
   O     70.69000000    87.11000000   114.50000000
   C     68.50000000    85.45000000   113.08000000
   C     67.21000000    84.64000000   112.95000000
   C     69.40000000    85.27000000   111.86000000
   C     66.56000000    84.74000000   111.58000000
   H     67.89000000    86.39000000   115.34000000
   H     69.40000000    84.12000000   114.37000000
   H     68.09000000    86.46000000   113.08000000
   H     66.48000000    84.92000000   113.71000000
   H     67.48000000    83.59000000   113.05000000
   H     68.95000000    85.87000000   111.07000000
   H     70.38000000    85.74000000   111.98000000
   H     69.50000000    84.19000000   111.75000000
   H     67.22000000    84.31000000   110.82000000
   H     65.58000000    84.26000000   111.57000000
   H     66.35000000    85.80000000   111.47000000
   N     71.74000000    85.11000000   114.39000000
   C     73.12000000    85.54000000   114.33000000
   C     73.47000000    85.68000000   112.86000000
   O     72.87000000    85.04000000   112.00000000
   C     74.07000000    84.66000000   115.15000000
   C     73.73000000    84.65000000   116.63000000
   O     73.37000000    83.58000000   117.16000000
   O     73.97000000    85.64000000   117.36000000
   H     71.54000000    84.14000000   114.20000000
   H     73.26000000    86.53000000   114.75000000
   H     75.12000000    84.94000000   115.05000000
   H     74.04000000    83.66000000   114.71000000
   N     74.53000000    86.41000000   112.50000000
   C     74.99000000    86.47000000   111.12000000
   C     75.08000000    85.16000000   110.35000000
   O     74.62000000    85.12000000   109.21000000
   C     76.21000000    87.38000000   110.96000000
   C     76.64000000    87.59000000   109.53000000
   C     75.80000000    88.25000000   108.63000000
   C     77.88000000    87.13000000   109.06000000
   C     76.23000000    88.46000000   107.31000000
   C     78.28000000    87.29000000   107.73000000
   C     77.51000000    88.09000000   106.88000000
   H     75.17000000    86.81000000   113.16000000
   H     74.12000000    86.98000000   110.72000000
   H     77.11000000    86.98000000   111.43000000
   H     76.09000000    88.32000000   111.49000000
   H     74.87000000    88.65000000   109.02000000
   H     78.46000000    86.48000000   109.70000000
   H     75.52000000    88.97000000   106.68000000
   H     79.15000000    86.82000000   107.29000000
   H     77.84000000    88.27000000   105.87000000
   N     75.65000000    84.06000000   110.86000000
   C     75.84000000    82.77000000   110.23000000
   C     74.51000000    82.07000000   109.98000000
   O     74.33000000    81.45000000   108.93000000
   C     76.85000000    82.01000000   111.08000000
   C     77.55000000    83.08000000   111.91000000
   C     76.41000000    84.08000000   112.09000000
   H     76.25000000    82.95000000   109.24000000
   H     76.33000000    81.35000000   111.77000000
   H     77.58000000    81.46000000   110.48000000
   H     77.78000000    82.56000000   112.84000000
   H     78.41000000    83.41000000   111.33000000
   H     75.82000000    83.72000000   112.93000000
   H     76.80000000    85.02000000   112.50000000
   N     73.53000000    82.29000000   110.85000000
   C     72.17000000    81.81000000   110.71000000
   C     71.45000000    82.53000000   109.59000000
   O     70.66000000    81.90000000   108.88000000
   C     71.49000000    81.94000000   112.07000000
   C     72.25000000    81.19000000   113.17000000
   C     71.76000000    81.54000000   114.57000000
   O     70.96000000    82.48000000   114.78000000
   O     72.08000000    80.86000000   115.57000000
   H     73.68000000    83.00000000   111.56000000
   H     72.32000000    80.77000000   110.41000000
   H     70.46000000    81.59000000   112.13000000
   H     71.39000000    83.01000000   112.24000000
   H     73.31000000    81.46000000   113.11000000
   H     72.08000000    80.12000000   113.10000000
   N     71.69000000    83.84000000   109.49000000
   C     71.20000000    84.71000000   108.44000000
   H     70.30600000    85.22800000   108.78600000
   H     71.96700000    85.44100000   108.18500000
   H     70.95700000    84.11600000   107.55900000
   H     72.33000000    84.27000000   110.14000000
  Ca     70.95000000    82.38000000   117.41000000
   O     70.77000000    84.99000000   118.18000000
   H     70.04000000    85.55000000   118.44000000
   H     71.55000000    85.52000000   118.35000000

Ca 1.00



