%chk=loop4.apoCaM-CA-Ng.Init293.run61.water3.chk
%nprocshared=20
%mem=10GB
%nosave
#b3lyp/svp scf=(tight,noincore,xqc) Test 
#IOP(5/87=12) Density=Current Pop=(MK,readradii) iop(6/33=2) iop(6/42=6)

loop4.apoCaM-CA-Ng.Init293.run61.water3 

   -3  1 
   C     41.44000000    60.45000000    69.64000000
   C     40.06000000    60.43000000    70.30000000
   O     39.67000000    61.22000000    71.16000000
   H     42.17700000    60.03400000    70.32700000
   H     41.41600000    59.85300000    68.72800000
   H     41.71200000    61.47700000    69.39600000
   N     39.23000000    59.51000000    69.81000000
   C     37.91000000    59.03000000    70.15000000
   C     36.77000000    60.04000000    70.26000000
   O     35.62000000    59.66000000    70.46000000
   C     37.93000000    57.97000000    71.24000000
   C     38.17000000    58.52000000    72.64000000
   O     38.48000000    59.70000000    72.91000000
   O     38.04000000    57.72000000    73.60000000
   H     39.67000000    58.98000000    69.07000000
   H     37.65000000    58.42000000    69.29000000
   H     38.65000000    57.18000000    71.01000000
   H     36.98000000    57.44000000    71.20000000
   N     37.08000000    61.33000000    70.17000000
   C     36.23000000    62.47000000    70.43000000
   C     36.15000000    62.73000000    71.93000000
   O     37.11000000    62.64000000    72.68000000
   C     36.59000000    63.67000000    69.56000000
   C     36.24000000    63.49000000    68.08000000
   C     37.99000000    64.25000000    69.71000000
   C     35.92000000    64.77000000    67.32000000
   H     38.07000000    61.52000000    70.12000000
   H     35.24000000    62.19000000    70.08000000
   H     35.91000000    64.42000000    69.97000000
   H     35.32000000    62.91000000    68.03000000
   H     37.01000000    62.88000000    67.60000000
   H     37.98000000    65.34000000    69.81000000
   H     38.48000000    63.92000000    70.63000000
   H     38.61000000    63.97000000    68.86000000
   H     35.01000000    65.23000000    67.71000000
   H     36.80000000    65.39000000    67.46000000
   H     35.77000000    64.51000000    66.27000000
   N     34.93000000    63.04000000    72.39000000
   C     34.51000000    62.77000000    73.74000000
   C     34.76000000    61.30000000    74.05000000
   O     34.53000000    60.49000000    73.15000000
   C     33.00000000    63.03000000    73.75000000
   C     32.14000000    62.37000000    72.68000000
   O     31.44000000    61.41000000    73.05000000
   O     32.06000000    62.90000000    71.55000000
   H     34.18000000    63.25000000    71.74000000
   H     35.04000000    63.46000000    74.39000000
   H     32.78000000    64.09000000    73.68000000
   H     32.58000000    62.66000000    74.69000000
   N     35.12000000    60.86000000    75.26000000
   C     35.35000000    61.58000000    76.50000000
   C     36.60000000    62.45000000    76.56000000
   O     37.43000000    62.29000000    75.67000000
   H     35.29000000    59.87000000    75.18000000
   H     35.30000000    60.84000000    77.29000000
   H     34.48000000    62.22000000    76.71000000
   N     36.61000000    63.48000000    77.40000000
   C     35.57000000    63.96000000    78.29000000
   C     34.40000000    64.59000000    77.55000000
   O     33.23000000    64.30000000    77.79000000
   C     36.21000000    64.82000000    79.38000000
   C     35.17000000    65.25000000    80.40000000
   O     34.94000000    64.68000000    81.49000000
   O     34.56000000    66.30000000    80.11000000
   H     37.46000000    64.03000000    77.38000000
   H     35.19000000    63.11000000    78.85000000
   H     36.65000000    65.74000000    78.99000000
   H     36.96000000    64.24000000    79.93000000
   N     34.58000000    65.56000000    76.65000000
   C     35.76000000    66.04000000    75.95000000
   C     35.55000000    67.47000000    75.46000000
   O     34.44000000    67.97000000    75.62000000
   H     33.73000000    65.99000000    76.33000000
   H     35.90000000    65.43000000    75.06000000
   H     36.61000000    65.96000000    76.62000000
   N     36.58000000    68.01000000    74.81000000
   C     36.71000000    69.45000000    74.65000000
   C     37.07000000    69.88000000    73.24000000
   O     37.79000000    70.86000000    73.03000000
   C     37.57000000    70.12000000    75.72000000
   C     37.10000000    69.97000000    77.17000000
   C     37.40000000    71.15000000    78.08000000
   N     38.15000000    71.01000000    79.18000000
   O     36.98000000    72.28000000    77.82000000
   H     37.39000000    67.46000000    74.55000000
   H     35.66000000    69.77000000    74.62000000
   H     37.59000000    71.19000000    75.53000000
   H     38.57000000    69.72000000    75.61000000
   H     37.58000000    69.09000000    77.59000000
   H     36.02000000    69.85000000    77.11000000
   H     38.61000000    70.14000000    79.41000000
   H     38.17000000    71.88000000    79.69000000
   N     36.70000000    69.09000000    72.23000000
   C     37.05000000    69.51000000    70.89000000
   C     38.40000000    68.88000000    70.57000000
   O     38.65000000    67.72000000    70.87000000
   C     36.01000000    69.27000000    69.79000000
   C     34.72000000    70.06000000    70.02000000
   C     35.59000000    67.82000000    69.55000000
   H     35.93000000    68.43000000    72.29000000
   H     37.21000000    70.58000000    70.81000000
   H     36.45000000    69.62000000    68.86000000
   H     34.17000000    70.02000000    69.08000000
   H     34.03000000    69.71000000    70.78000000
   H     34.93000000    71.08000000    70.34000000
   H     34.98000000    67.79000000    68.65000000
   H     36.47000000    67.22000000    69.33000000
   H     34.95000000    67.44000000    70.35000000
   N     39.27000000    69.71000000    69.98000000
   C     40.69000000    69.43000000    70.05000000
   C     41.43000000    69.82000000    71.31000000
   O     42.57000000    69.41000000    71.53000000
   C     41.25000000    69.92000000    68.72000000
   C     42.75000000    69.77000000    68.50000000
   N     43.45000000    70.90000000    68.42000000
   O     43.38000000    68.71000000    68.46000000
   H     39.01000000    70.69000000    69.96000000
   H     40.85000000    68.35000000    70.07000000
   H     41.00000000    70.98000000    68.73000000
   H     40.73000000    69.44000000    67.89000000
   H     42.97000000    71.79000000    68.35000000
   H     44.46000000    70.84000000    68.50000000
   N     40.86000000    70.64000000    72.20000000
   C     41.40000000    71.01000000    73.49000000
   C     41.53000000    69.78000000    74.38000000
   O     40.71000000    68.87000000    74.26000000
   C     40.52000000    72.13000000    74.05000000
   C     40.99000000    72.78000000    75.33000000
   C     42.14000000    73.57000000    75.37000000
   C     40.22000000    72.61000000    76.48000000
   C     42.59000000    74.12000000    76.58000000
   C     40.68000000    73.11000000    77.71000000
   C     41.87000000    73.86000000    77.76000000
   O     42.43000000    74.36000000    78.91000000
   H     39.91000000    70.92000000    72.00000000
   H     42.39000000    71.40000000    73.29000000
   H     39.55000000    71.71000000    74.32000000
   H     40.35000000    72.89000000    73.29000000
   H     42.68000000    73.68000000    74.44000000
   H     39.33000000    72.00000000    76.44000000
   H     43.57000000    74.56000000    76.61000000
   H     40.14000000    72.97000000    78.63000000
   H     43.24000000    74.85000000    78.80000000
   N     42.55000000    69.65000000    75.22000000
   C     42.98000000    68.52000000    76.03000000
   C     43.32000000    67.21000000    75.34000000
   O     43.94000000    66.35000000    75.96000000
   C     42.17000000    68.32000000    77.30000000
   C     41.94000000    69.50000000    78.24000000
   C     41.10000000    69.24000000    79.48000000
   O     41.64000000    69.27000000    80.61000000
   O     39.95000000    68.79000000    79.30000000
   H     43.25000000    70.38000000    75.19000000
   H     44.02000000    68.79000000    76.25000000
   H     42.77000000    67.60000000    77.87000000
   H     41.15000000    68.04000000    77.04000000
   H     41.44000000    70.28000000    77.67000000
   H     42.91000000    69.88000000    78.57000000
   N     42.99000000    67.05000000    74.05000000
   C     43.51000000    66.05000000    73.14000000
   C     44.85000000    66.44000000    72.53000000
   O     45.55000000    65.54000000    72.08000000
   C     42.56000000    65.76000000    71.98000000
   C     41.06000000    65.78000000    72.27000000
   C     40.64000000    64.58000000    73.10000000
   O     39.53000000    64.48000000    73.67000000
   O     41.40000000    63.60000000    73.25000000
   H     42.34000000    67.68000000    73.60000000
   H     43.64000000    65.16000000    73.75000000
   H     42.80000000    64.80000000    71.54000000
   H     42.71000000    66.52000000    71.21000000
   H     40.46000000    65.86000000    71.37000000
   H     40.91000000    66.70000000    72.84000000
   N     45.28000000    67.68000000    72.78000000
   C     46.68000000    68.04000000    72.72000000
   H     47.26100000    67.18200000    72.38100000
   H     46.81300000    68.86700000    72.02300000
   H     47.02100000    68.34000000    73.71100000
   H     44.56000000    68.34000000    73.03000000
  Ca     39.34000000    61.85000000    73.83000000
   O     40.64000000    62.65000000    76.06000000
   H     40.85000000    61.96000000    76.69000000
   H     41.25000000    63.36000000    76.28000000
   O     39.16000000    59.84000000    75.62000000
   H     38.77000000    59.30000000    74.93000000
   H     39.57000000    59.22000000    76.21000000
   O     41.64000000    60.27000000    73.87000000
   H     42.01000000    60.03000000    73.02000000
   H     41.71000000    59.47000000    74.40000000

Ca 1.00



