%chk=loop2.apoCaM-CA-Ng.Init295.run36.water4.chk
%nprocshared=20
%mem=10GB
%nosave
#b3lyp/svp scf=(tight,noincore,xqc) Test 
#IOP(5/87=12) Density=Current Pop=(MK,readradii) iop(6/33=2) iop(6/42=6)

loop2.apoCaM-CA-Ng.Init295.run36.water4 

   -2  1 
   C     92.27000000    56.44000000    41.90000000
   C     93.34000000    56.41000000    40.82000000
   O     93.11000000    57.03000000    39.78000000
   H     91.34900000    56.00700000    41.51000000
   H     92.60600000    55.86300000    42.76100000
   H     92.08700000    57.47100000    42.20200000
   N     94.47000000    55.73000000    41.02000000
   C     95.68000000    55.95000000    40.25000000
   C     96.25000000    57.34000000    40.54000000
   O     96.78000000    57.56000000    41.62000000
   C     96.71000000    54.89000000    40.59000000
   C     97.95000000    54.98000000    39.72000000
   O     98.15000000    55.96000000    38.96000000
   O     98.78000000    54.05000000    39.83000000
   H     94.63000000    55.26000000    41.90000000
   H     95.48000000    55.89000000    39.18000000
   H     96.14000000    53.98000000    40.40000000
   H     96.99000000    54.88000000    41.65000000
   N     96.03000000    58.29000000    39.63000000
   C     96.46000000    59.66000000    39.78000000
   C     95.43000000    60.53000000    40.50000000
   O     94.24000000    60.24000000    40.52000000
   C     96.77000000    60.13000000    38.37000000
   H     95.56000000    58.03000000    38.77000000
   H     97.35000000    59.66000000    40.41000000
   H     95.82000000    60.19000000    37.83000000
   H     97.31000000    61.08000000    38.39000000
   H     97.38000000    59.37000000    37.87000000
   N     95.78000000    61.65000000    41.14000000
   C     97.05000000    62.33000000    41.10000000
   C     97.93000000    62.03000000    42.30000000
   O     97.41000000    61.59000000    43.33000000
   C     96.90000000    63.85000000    40.97000000
   C     95.96000000    64.32000000    39.87000000
   O     96.34000000    64.48000000    38.68000000
   O     94.85000000    64.77000000    40.20000000
   H     94.94000000    62.02000000    41.58000000
   H     97.57000000    61.95000000    40.22000000
   H     97.87000000    64.31000000    40.77000000
   H     96.54000000    64.21000000    41.93000000
   N     99.24000000    62.28000000    42.23000000
   C    100.15000000    61.56000000    43.11000000
   C     99.80000000    60.09000000    43.25000000
   O     99.54000000    59.45000000    42.23000000
   H     99.63000000    62.70000000    41.40000000
   H     99.99000000    62.06000000    44.07000000
   H    101.23000000    61.49000000    43.00000000
   N     99.89000000    59.44000000    44.41000000
   C    100.50000000    59.93000000    45.63000000
   C     99.49000000    60.55000000    46.59000000
   O     99.85000000    61.16000000    47.59000000
   C    101.06000000    58.71000000    46.36000000
   C    102.20000000    58.10000000    45.55000000
   N    102.16000000    56.83000000    45.14000000
   O    103.06000000    58.84000000    45.09000000
   H     99.57000000    58.48000000    44.37000000
   H    101.22000000    60.73000000    45.44000000
   H    100.31000000    57.96000000    46.58000000
   H    101.44000000    59.10000000    47.30000000
   H    101.56000000    56.11000000    45.54000000
   H    102.86000000    56.54000000    44.47000000
   N     98.20000000    60.30000000    46.31000000
   C     97.10000000    60.81000000    47.09000000
   C     96.83000000    62.31000000    47.14000000
   O     96.55000000    62.76000000    48.25000000
   H     98.01000000    59.79000000    45.46000000
   H     97.10000000    60.39000000    48.10000000
   H     96.23000000    60.32000000    46.64000000
   N     97.01000000    63.08000000    46.06000000
   C     96.73000000    64.50000000    46.02000000
   C     95.31000000    64.75000000    45.54000000
   O     95.18000000    65.42000000    44.52000000
   C     97.75000000    65.17000000    45.10000000
   C     97.65000000    66.67000000    45.33000000
   O     99.05000000    64.75000000    45.47000000
   H     97.02000000    62.60000000    45.17000000
   H     96.93000000    64.90000000    47.01000000
   H     97.58000000    65.13000000    44.02000000
   H     99.53000000    65.07000000    44.71000000
   H     98.49000000    67.16000000    44.84000000
   H     96.74000000    67.08000000    44.89000000
   H     97.61000000    67.03000000    46.36000000
   N     94.28000000    64.18000000    46.17000000
   C     92.88000000    64.16000000    45.80000000
   C     92.10000000    65.26000000    46.51000000
   O     92.42000000    65.73000000    47.60000000
   C     92.24000000    62.80000000    46.04000000
   C     92.38000000    61.82000000    44.88000000
   C     92.62000000    62.05000000    47.32000000
   C     93.78000000    61.43000000    44.43000000
   H     94.46000000    63.73000000    47.06000000
   H     92.83000000    64.35000000    44.73000000
   H     91.18000000    63.03000000    46.10000000
   H     91.91000000    62.30000000    44.02000000
   H     91.83000000    60.92000000    45.18000000
   H     93.61000000    61.58000000    47.26000000
   H     92.50000000    62.79000000    48.10000000
   H     91.92000000    61.27000000    47.61000000
   H     94.28000000    60.76000000    45.12000000
   H     93.72000000    60.86000000    43.50000000
   H     94.36000000    62.35000000    44.35000000
   N     90.98000000    65.70000000    45.95000000
   C     90.02000000    66.62000000    46.53000000
   C     88.56000000    66.29000000    46.28000000
   O     88.24000000    65.69000000    45.25000000
   C     90.23000000    68.00000000    45.90000000
   C     90.36000000    67.93000000    44.39000000
   O     91.47000000    67.79000000    43.83000000
   O     89.33000000    67.97000000    43.68000000
   H     90.83000000    65.27000000    45.05000000
   H     90.17000000    66.75000000    47.60000000
   H     91.20000000    68.32000000    46.28000000
   H     89.43000000    68.67000000    46.22000000
   N     87.63000000    66.57000000    47.20000000
   C     86.20000000    66.39000000    47.11000000
   C     85.85000000    64.94000000    46.79000000
   O     86.23000000    64.09000000    47.59000000
   C     85.58000000    66.79000000    48.44000000
   C     84.07000000    66.77000000    48.40000000
   C     83.37000000    65.57000000    48.57000000
   C     83.35000000    67.87000000    47.91000000
   C     82.08000000    65.39000000    48.08000000
   C     82.00000000    67.75000000    47.56000000
   C     81.41000000    66.48000000    47.49000000
   H     88.01000000    67.04000000    48.01000000
   H     85.76000000    67.08000000    46.38000000
   H     85.87000000    67.80000000    48.73000000
   H     85.91000000    66.09000000    49.21000000
   H     83.86000000    64.70000000    48.98000000
   H     83.80000000    68.84000000    47.75000000
   H     81.48000000    64.50000000    48.20000000
   H     81.44000000    68.57000000    47.13000000
   H     80.37000000    66.41000000    47.21000000
   N     85.14000000    64.73000000    45.68000000
   C     84.60000000    63.44000000    45.29000000
   C     85.66000000    62.38000000    45.03000000
   O     85.40000000    61.19000000    44.91000000
   C     83.60000000    63.64000000    44.15000000
   C     83.20000000    65.10000000    44.35000000
   C     84.52000000    65.71000000    44.82000000
   H     84.08000000    63.12000000    46.19000000
   H     84.05000000    63.49000000    43.18000000
   H     82.72000000    63.01000000    44.32000000
   H     82.85000000    65.46000000    43.39000000
   H     82.40000000    65.17000000    45.09000000
   H     85.05000000    65.90000000    43.89000000
   H     84.27000000    66.64000000    45.33000000
   N     86.91000000    62.79000000    44.81000000
   C     88.06000000    61.94000000    44.57000000
   C     88.57000000    61.15000000    45.77000000
   O     89.16000000    60.10000000    45.55000000
   C     89.12000000    62.84000000    43.92000000
   C     88.59000000    63.55000000    42.69000000
   C     89.49000000    64.72000000    42.31000000
   O     90.65000000    64.94000000    42.73000000
   O     88.96000000    65.53000000    41.53000000
   H     87.04000000    63.79000000    44.86000000
   H     87.72000000    61.31000000    43.75000000
   H     89.84000000    62.09000000    43.59000000
   H     89.59000000    63.46000000    44.69000000
   H     87.60000000    63.94000000    42.91000000
   H     88.52000000    62.88000000    41.83000000
   N     88.17000000    61.49000000    47.00000000
   C     88.51000000    60.58000000    48.07000000
   H     89.37000000    60.96700000    48.61600000
   H     87.66300000    60.48400000    48.74900000
   H     88.75500000    59.60300000    47.65300000
   H     87.72000000    62.39000000    47.10000000
  Ca     90.65000000    67.49000000    41.56000000
   O     88.60000000    68.05000000    39.98000000
   H     88.69000000    68.81000000    39.41000000
   H     87.68000000    68.05000000    40.24000000
   O     91.48000000    66.27000000    38.80000000
   H     91.21000000    66.58000000    37.94000000
   H     92.42000000    66.44000000    38.84000000
   O     91.97000000    69.36000000    40.04000000
   H     91.95000000    70.12000000    40.62000000
   H     92.51000000    69.63000000    39.30000000
   O     93.06000000    66.71000000    41.64000000
   H     93.75000000    66.23000000    41.19000000
   H     93.41000000    66.89000000    42.51000000

Ca 1.00



