%chk=loop3.apoCaM-CA-Ng.Init293.run49.water6.chk
%nprocshared=20
%mem=10GB
%nosave
#b3lyp/svp scf=(tight,noincore,xqc) Test 
#IOP(5/87=12) Density=Current Pop=(MK,readradii) iop(6/33=2) iop(6/42=6)

loop3.apoCaM-CA-Ng.Init293.run49.water6 

   0  1 
   C     59.60000000    77.98000000    76.36000000
   C     60.97000000    77.42000000    76.03000000
   O     61.37000000    76.36000000    76.52000000
   H     58.87600000    77.16700000    76.40000000
   H     59.63500000    78.48200000    77.32700000
   H     59.30300000    78.69300000    75.59100000
   N     61.66000000    77.99000000    75.04000000
   C     62.94000000    77.56000000    74.51000000
   C     62.67000000    76.31000000    73.69000000
   O     61.66000000    76.27000000    72.99000000
   C     63.57000000    78.72000000    73.74000000
   C     65.00000000    78.43000000    73.32000000
   O     65.65000000    77.55000000    73.92000000
   O     65.57000000    79.11000000    72.44000000
   H     61.20000000    78.70000000    74.49000000
   H     63.61000000    77.31000000    75.33000000
   H     63.62000000    79.57000000    74.42000000
   H     63.01000000    78.91000000    72.82000000
   N     63.51000000    75.28000000    73.85000000
   C     63.60000000    74.16000000    72.93000000
   C     63.73000000    74.63000000    71.49000000
   O     63.86000000    75.81000000    71.20000000
   C     62.46000000    73.17000000    73.14000000
   C     62.68000000    72.20000000    74.31000000
   C     61.80000000    70.96000000    74.34000000
   C     60.47000000    71.07000000    75.08000000
   N     59.85000000    69.75000000    75.24000000
   H     64.31000000    75.53000000    74.41000000
   H     64.60000000    73.74000000    73.06000000
   H     62.26000000    72.58000000    72.25000000
   H     61.53000000    73.68000000    73.38000000
   H     62.50000000    72.74000000    75.24000000
   H     63.74000000    71.96000000    74.39000000
   H     62.40000000    70.16000000    74.79000000
   H     61.49000000    70.65000000    73.35000000
   H     59.88000000    71.72000000    74.44000000
   H     60.64000000    71.62000000    76.01000000
   H     58.86000000    69.88000000    75.40000000
   H     59.94000000    69.20000000    74.39000000
   H     60.08000000    69.23000000    76.08000000
   N     63.98000000    73.71000000    70.55000000
   C     64.19000000    73.98000000    69.14000000
   C     62.98000000    74.67000000    68.53000000
   O     61.84000000    74.45000000    68.93000000
   C     64.38000000    72.65000000    68.41000000
   C     63.38000000    71.61000000    68.89000000
   O     62.50000000    71.22000000    68.09000000
   O     63.57000000    71.04000000    69.98000000
   H     63.95000000    72.72000000    70.73000000
   H     65.06000000    74.63000000    69.02000000
   H     65.39000000    72.26000000    68.58000000
   H     64.36000000    72.78000000    67.33000000
   N     63.26000000    75.34000000    67.41000000
   C     62.31000000    75.83000000    66.44000000
   C     61.78000000    74.83000000    65.43000000
   O     62.59000000    74.28000000    64.67000000
   H     64.25000000    75.47000000    67.25000000
   H     62.80000000    76.64000000    65.90000000
   H     61.51000000    76.38000000    66.94000000
   N     60.46000000    74.63000000    65.39000000
   C     59.77000000    73.63000000    64.61000000
   C     59.17000000    74.21000000    63.33000000
   O     58.64000000    73.38000000    62.60000000
   C     58.91000000    72.67000000    65.43000000
   C     59.67000000    71.96000000    66.54000000
   N     59.97000000    72.59000000    67.67000000
   O     60.03000000    70.79000000    66.44000000
   H     59.88000000    75.08000000    66.08000000
   H     60.55000000    73.02000000    64.15000000
   H     58.58000000    71.89000000    64.75000000
   H     58.05000000    73.14000000    65.91000000
   H     59.43000000    73.43000000    67.82000000
   H     60.72000000    72.22000000    68.23000000
   N     59.41000000    75.49000000    63.03000000
   C     58.98000000    76.26000000    61.87000000
   C     57.49000000    76.08000000    61.60000000
   O     56.66000000    76.52000000    62.39000000
   H     60.09000000    75.97000000    63.59000000
   H     59.65000000    75.84000000    61.12000000
   H     59.03000000    77.31000000    62.15000000
   N     57.18000000    75.37000000    60.51000000
   C     55.84000000    74.92000000    60.24000000
   C     54.97000000    74.27000000    61.31000000
   O     53.76000000    74.26000000    61.13000000
   C     55.27000000    76.02000000    59.35000000
   C     54.23000000    75.69000000    58.30000000
   C     53.04000000    76.42000000    58.21000000
   C     54.60000000    74.81000000    57.27000000
   C     52.23000000    76.26000000    57.07000000
   C     53.76000000    74.58000000    56.18000000
   C     52.56000000    75.31000000    56.09000000
   O     51.70000000    74.95000000    55.09000000
   H     57.93000000    75.06000000    59.90000000
   H     55.98000000    74.03000000    59.62000000
   H     56.12000000    76.48000000    58.85000000
   H     54.83000000    76.69000000    60.08000000
   H     52.78000000    77.18000000    58.93000000
   H     55.51000000    74.23000000    57.34000000
   H     51.32000000    76.81000000    56.92000000
   H     54.16000000    73.93000000    55.42000000
   H     51.92000000    74.22000000    54.52000000
   N     55.55000000    73.78000000    62.41000000
   C     54.96000000    72.97000000    63.45000000
   C     54.38000000    71.63000000    63.02000000
   O     54.66000000    70.62000000    63.65000000
   C     53.98000000    73.75000000    64.33000000
   C     54.32000000    75.19000000    64.72000000
   C     53.67000000    72.91000000    65.57000000
   C     55.47000000    75.37000000    65.70000000
   H     56.56000000    73.83000000    62.42000000
   H     55.82000000    72.78000000    64.09000000
   H     53.08000000    73.86000000    63.72000000
   H     53.35000000    75.59000000    65.00000000
   H     54.64000000    75.74000000    63.83000000
   H     54.50000000    72.75000000    66.25000000
   H     52.86000000    73.49000000    66.01000000
   H     53.20000000    71.98000000    65.26000000
   H     56.38000000    74.86000000    65.37000000
   H     55.75000000    76.42000000    65.63000000
   H     55.12000000    75.04000000    66.68000000
   N     53.50000000    71.56000000    62.02000000
   C     53.09000000    70.28000000    61.46000000
   C     52.30000000    69.43000000    62.45000000
   O     52.39000000    68.21000000    62.29000000
   C     52.29000000    70.46000000    60.17000000
   O     53.15000000    71.06000000    59.23000000
   H     53.49000000    72.33000000    61.36000000
   H     53.96000000    69.65000000    61.29000000
   H     51.47000000    71.15000000    60.38000000
   H     51.95000000    69.49000000    59.83000000
   H     52.67000000    71.81000000    58.86000000
   N     51.60000000    70.13000000    63.34000000
   C     50.86000000    69.52000000    64.42000000
   C     51.63000000    68.55000000    65.30000000
   O     50.98000000    67.69000000    65.90000000
   C     49.52000000    69.01000000    63.87000000
   H     51.57000000    71.14000000    63.30000000
   H     50.55000000    70.30000000    65.11000000
   H     49.69000000    68.29000000    63.07000000
   H     49.04000000    68.38000000    64.62000000
   H     49.00000000    69.89000000    63.50000000
   N     52.97000000    68.54000000    65.29000000
   C     53.82000000    67.56000000    65.94000000
   C     54.41000000    67.97000000    67.28000000
   O     54.37000000    69.12000000    67.73000000
   C     54.94000000    67.17000000    64.98000000
   H     53.40000000    69.29000000    64.77000000
   H     53.16000000    66.75000000    66.22000000
   H     55.43000000    68.04000000    64.55000000
   H     55.69000000    66.62000000    65.56000000
   H     54.61000000    66.46000000    64.22000000
   N     55.14000000    67.04000000    67.90000000
   C     55.86000000    67.17000000    69.16000000
   C     55.00000000    67.58000000    70.34000000
   O     55.47000000    68.02000000    71.39000000
   C     57.18000000    67.92000000    69.10000000
   C     58.13000000    67.38000000    68.03000000
   C     59.61000000    67.73000000    68.10000000
   O     60.15000000    67.85000000    69.23000000
   O     60.26000000    67.81000000    67.04000000
   H     55.15000000    66.16000000    67.41000000
   H     56.14000000    66.17000000    69.49000000
   H     57.61000000    67.96000000    70.10000000
   H     56.92000000    68.94000000    68.83000000
   H     57.83000000    67.67000000    67.03000000
   H     58.10000000    66.29000000    68.08000000
   N     53.67000000    67.45000000    70.29000000
   C     52.72000000    68.08000000    71.19000000
   H     51.77800000    67.53200000    71.16500000
   H     53.11900000    68.07100000    72.20400000
   H     52.54900000    69.11000000    70.87600000
   H     53.37000000    66.78000000    69.60000000
  Ca     62.31000000    69.33000000    66.17000000
   O     63.38000000    66.72000000    65.86000000
   H     64.26000000    66.55000000    65.53000000
   H     62.89000000    65.93000000    65.63000000
   O     62.89000000    68.37000000    68.85000000
   H     62.14000000    67.82000000    69.11000000
   H     62.89000000    69.08000000    69.49000000
   O     64.94000000    69.20000000    67.08000000
   H     65.84000000    69.11000000    66.78000000
   H     65.01000000    69.39000000    68.01000000
   O     62.85000000    71.65000000    64.85000000
   H     63.62000000    71.61000000    64.28000000
   H     62.66000000    72.58000000    64.94000000
   O     60.74000000    69.26000000    63.96000000
   H     60.68000000    69.58000000    63.05000000
   H     59.83000000    69.14000000    64.23000000
   O     64.10000000    68.96000000    64.02000000
   H     63.76000000    68.43000000    63.30000000
   H     65.05000000    68.96000000    63.90000000

Ca 1.00



