%chk=loop2.apoCaM-CA-Ng.Init293.run19.water6.chk
%nprocshared=20
%mem=10GB
%nosave
#b3lyp/svp scf=(tight,noincore,xqc) Test 
#IOP(5/87=12) Density=Current Pop=(MK,readradii) iop(6/33=2) iop(6/42=6)

loop2.apoCaM-CA-Ng.Init293.run19.water6 

   -2  1 
   C     53.99000000    -6.55000000    38.66000000
   C     53.38000000    -7.38000000    39.78000000
   O     53.84000000    -7.36000000    40.92000000
   H     54.99900000    -6.90700000    38.45200000
   H     53.38000000    -6.64600000    37.76200000
   H     54.03000000    -5.50400000    38.96300000
   N     52.41000000    -8.23000000    39.45000000
   C     51.70000000    -9.16000000    40.30000000
   C     52.68000000   -10.08000000    41.02000000
   O     52.48000000   -10.31000000    42.21000000
   C     50.76000000    -9.98000000    39.42000000
   C     50.12000000   -11.11000000    40.22000000
   O     50.40000000   -12.30000000    39.98000000
   O     49.38000000   -10.83000000    41.19000000
   H     52.09000000    -8.14000000    38.49000000
   H     51.12000000    -8.51000000    40.96000000
   H     51.24000000   -10.21000000    38.47000000
   H     49.99000000    -9.26000000    39.14000000
   N     53.81000000   -10.44000000    40.40000000
   C     54.97000000   -11.10000000    40.96000000
   C     55.66000000   -10.52000000    42.19000000
   O     55.91000000   -11.24000000    43.15000000
   C     54.81000000   -12.62000000    40.89000000
   H     53.99000000   -10.19000000    39.44000000
   H     55.69000000   -10.82000000    40.19000000
   H     54.39000000   -12.90000000    39.92000000
   H     55.80000000   -13.05000000    41.05000000
   H     54.15000000   -13.03000000    41.65000000
   N     55.77000000    -9.19000000    42.31000000
   C     56.41000000    -8.49000000    43.40000000
   C     55.90000000    -8.81000000    44.79000000
   O     56.69000000    -8.72000000    45.73000000
   C     57.94000000    -8.49000000    43.33000000
   C     58.50000000    -8.23000000    41.94000000
   O     57.87000000    -7.40000000    41.25000000
   O     59.60000000    -8.73000000    41.64000000
   H     55.53000000    -8.83000000    41.40000000
   H     56.13000000    -7.46000000    43.17000000
   H     58.32000000    -9.42000000    43.75000000
   H     58.34000000    -7.68000000    43.95000000
   N     54.66000000    -9.28000000    44.97000000
   C     54.04000000    -9.27000000    46.28000000
   C     54.10000000    -7.90000000    46.93000000
   O     53.94000000    -6.89000000    46.24000000
   H     54.04000000    -9.41000000    44.18000000
   H     54.49000000   -10.10000000    46.81000000
   H     52.97000000    -9.48000000    46.27000000
   N     54.18000000    -7.94000000    48.26000000
   C     54.27000000    -6.76000000    49.11000000
   C     53.07000000    -5.83000000    49.01000000
   O     53.31000000    -4.63000000    49.08000000
   C     55.62000000    -6.07000000    48.98000000
   C     56.83000000    -6.95000000    49.25000000
   N     57.31000000    -7.76000000    48.30000000
   O     57.42000000    -6.97000000    50.33000000
   H     54.27000000    -8.87000000    48.64000000
   H     54.20000000    -7.14000000    50.12000000
   H     55.70000000    -5.22000000    49.67000000
   H     55.67000000    -5.52000000    48.04000000
   H     56.85000000    -7.76000000    47.40000000
   H     58.10000000    -8.35000000    48.51000000
   N     51.87000000    -6.36000000    48.74000000
   C     50.68000000    -5.60000000    48.41000000
   C     50.48000000    -5.09000000    46.99000000
   O     49.50000000    -4.41000000    46.70000000
   H     51.80000000    -7.36000000    48.69000000
   H     50.60000000    -4.78000000    49.12000000
   H     49.82000000    -6.20000000    48.73000000
   N     51.45000000    -5.26000000    46.09000000
   C     51.38000000    -5.01000000    44.66000000
   C     52.30000000    -3.87000000    44.25000000
   O     53.44000000    -3.75000000    44.69000000
   C     51.69000000    -6.30000000    43.91000000
   C     50.64000000    -7.36000000    44.19000000
   O     51.74000000    -6.09000000    42.51000000
   H     52.19000000    -5.83000000    46.46000000
   H     50.37000000    -4.69000000    44.40000000
   H     52.64000000    -6.68000000    44.27000000
   H     52.48000000    -6.65000000    42.28000000
   H     50.52000000    -7.54000000    45.26000000
   H     49.70000000    -7.26000000    43.65000000
   H     51.14000000    -8.24000000    43.79000000
   N     51.88000000    -2.90000000    43.43000000
   C     52.61000000    -1.72000000    42.99000000
   C     53.97000000    -2.14000000    42.43000000
   O     54.19000000    -3.25000000    41.96000000
   C     51.74000000    -0.83000000    42.11000000
   C     52.26000000     0.61000000    42.18000000
   C     51.58000000    -1.34000000    40.69000000
   C     51.23000000     1.55000000    41.57000000
   H     50.91000000    -2.99000000    43.19000000
   H     52.84000000    -1.17000000    43.90000000
   H     50.75000000    -0.78000000    42.55000000
   H     53.22000000     0.83000000    41.71000000
   H     52.33000000     0.95000000    43.21000000
   H     52.59000000    -1.21000000    40.30000000
   H     51.21000000    -2.37000000    40.64000000
   H     50.92000000    -0.72000000    40.08000000
   H     51.25000000     1.45000000    40.48000000
   H     50.24000000     1.19000000    41.83000000
   H     51.34000000     2.62000000    41.77000000
   N     54.94000000    -1.23000000    42.54000000
   C     56.32000000    -1.48000000    42.16000000
   C     57.25000000    -1.40000000    43.36000000
   O     58.35000000    -0.87000000    43.27000000
   C     56.91000000    -0.65000000    41.03000000
   C     58.17000000    -1.31000000    40.49000000
   O     58.44000000    -2.52000000    40.70000000
   O     58.92000000    -0.56000000    39.84000000
   H     54.70000000    -0.42000000    43.09000000
   H     56.36000000    -2.48000000    41.73000000
   H     57.20000000     0.34000000    41.39000000
   H     56.27000000    -0.51000000    40.16000000
   N     56.76000000    -1.91000000    44.50000000
   C     57.53000000    -2.11000000    45.71000000
   C     58.05000000    -0.87000000    46.42000000
   O     59.22000000    -0.82000000    46.78000000
   C     56.64000000    -2.98000000    46.60000000
   C     57.34000000    -3.21000000    47.92000000
   C     58.26000000    -4.26000000    48.09000000
   C     57.05000000    -2.30000000    48.94000000
   C     58.96000000    -4.45000000    49.29000000
   C     57.68000000    -2.55000000    50.17000000
   C     58.55000000    -3.63000000    50.35000000
   H     55.80000000    -2.20000000    44.36000000
   H     58.36000000    -2.72000000    45.37000000
   H     56.48000000    -3.93000000    46.08000000
   H     55.66000000    -2.57000000    46.83000000
   H     58.47000000    -4.91000000    47.26000000
   H     56.37000000    -1.47000000    48.79000000
   H     59.53000000    -5.35000000    49.40000000
   H     57.59000000    -1.80000000    50.94000000
   H     59.00000000    -3.82000000    51.31000000
   N     57.32000000     0.23000000    46.61000000
   C     55.97000000     0.50000000    46.15000000
   C     55.82000000     1.43000000    44.96000000
   O     54.68000000     1.49000000    44.49000000
   C     55.20000000     0.93000000    47.40000000
   C     56.22000000     1.85000000    48.06000000
   C     57.54000000     1.17000000    47.69000000
   H     55.54000000    -0.46000000    45.86000000
   H     54.29000000     1.47000000    47.11000000
   H     54.97000000     0.07000000    48.02000000
   H     56.15000000     2.86000000    47.67000000
   H     56.06000000     1.93000000    49.13000000
   H     58.40000000     1.80000000    47.45000000
   H     57.85000000     0.57000000    48.54000000
   N     56.83000000     2.19000000    44.54000000
   C     56.60000000     3.52000000    44.02000000
   C     56.78000000     3.61000000    42.51000000
   O     57.61000000     2.92000000    41.92000000
   C     57.52000000     4.56000000    44.66000000
   C     57.22000000     6.03000000    44.37000000
   C     55.78000000     6.40000000    44.68000000
   O     55.54000000     6.74000000    45.86000000
   O     54.96000000     6.45000000    43.74000000
   H     57.78000000     1.98000000    44.80000000
   H     55.57000000     3.84000000    44.17000000
   H     58.55000000     4.43000000    44.32000000
   H     57.52000000     4.43000000    45.74000000
   H     57.43000000     6.14000000    43.30000000
   H     57.93000000     6.62000000    44.95000000
   N     55.91000000     4.34000000    41.80000000
   C     55.75000000     4.36000000    40.36000000
   H     55.11600000     5.20000000    40.07700000
   H     56.72600000     4.46600000    39.88700000
   H     55.28600000     3.43000000    40.03200000
   H     55.24000000     4.90000000    42.30000000
  Ca     58.39000000    -5.04100000    40.55000000
   O     55.82000000    -5.30100000    41.12000000
   H     55.30000000    -6.10100000    41.18000000
   H     55.32000000    -4.65100000    41.60000000
   O     60.31000000    -4.07100000    38.97000000
   H     60.20000000    -3.21100000    38.56000000
   H     61.21000000    -4.06100000    39.31000000
   O     60.52000000    -4.75100000    42.13000000
   H     60.70000000    -3.87100000    42.46000000
   H     60.79000000    -5.33100000    42.84000000
   O     57.44000000    -5.04100000    38.09000000
   H     57.31000000    -5.96100000    37.83000000
   H     57.94000000    -4.66100000    37.37000000
   O     60.23000000    -6.97100000    39.62000000
   H     59.99000000    -7.66100000    39.00000000
   H     60.34000000    -7.43100000    40.46000000
   O     57.81000000    -4.91100000    43.28000000
   H     58.49000000    -4.92100000    43.95000000
   H     57.02000000    -5.20100000    43.73000000

Ca 1.00



