%chk=loop2.apoCaM-CA-Ng.Init295.run92.water4.chk
%nprocshared=20
%mem=10GB
%nosave
#b3lyp/svp scf=(tight,noincore,xqc) Test 
#IOP(5/87=12) Density=Current Pop=(MK,readradii) iop(6/33=2) iop(6/42=6)

loop2.apoCaM-CA-Ng.Init295.run92.water4 

   -2  1 
   C    116.42000000   103.66000000    70.38000000
   C    117.27000000   104.92000000    70.52000000
   O    116.93000000   105.98000000    70.00000000
   H    115.48300000   103.90800000    69.88100000
   H    116.96100000   102.92000000    69.79000000
   H    116.20800000   103.25300000    71.36800000
   N    118.38000000   104.82000000    71.25000000
   C    119.39000000   105.85000000    71.38000000
   C    119.11000000   106.82000000    72.52000000
   O    119.98000000   107.46000000    73.11000000
   C    120.73000000   105.11000000    71.45000000
   C    121.89000000   105.99000000    71.02000000
   O    121.83000000   107.23000000    71.12000000
   O    122.96000000   105.50000000    70.59000000
   H    118.58000000   103.97000000    71.76000000
   H    119.31000000   106.41000000    70.45000000
   H    120.72000000   104.26000000    70.76000000
   H    120.82000000   104.80000000    72.49000000
   N    117.80000000   106.94000000    72.76000000
   C    117.13000000   107.73000000    73.77000000
   C    115.92000000   106.96000000    74.29000000
   O    115.46000000   106.06000000    73.60000000
   C    116.68000000   109.05000000    73.15000000
   H    117.26000000   106.13000000    72.49000000
   H    117.82000000   107.94000000    74.58000000
   H    117.55000000   109.47000000    72.63000000
   H    115.88000000   108.76000000    72.47000000
   H    116.26000000   109.80000000    73.81000000
   N    115.58000000   107.08000000    75.58000000
   C    116.11000000   107.96000000    76.60000000
   C    117.35000000   107.39000000    77.28000000
   O    118.10000000   108.05000000    77.99000000
   C    115.04000000   108.10000000    77.68000000
   C    115.28000000   109.22000000    78.67000000
   O    115.82000000   110.28000000    78.29000000
   O    114.84000000   109.10000000    79.84000000
   H    114.77000000   106.54000000    75.86000000
   H    116.31000000   108.93000000    76.15000000
   H    114.99000000   107.16000000    78.23000000
   H    114.07000000   108.35000000    77.26000000
   N    117.64000000   106.10000000    77.08000000
   C    118.75000000   105.35000000    77.62000000
   C    120.06000000   105.45000000    76.85000000
   O    120.10000000   105.58000000    75.63000000
   H    116.96000000   105.64000000    76.49000000
   H    118.41000000   104.31000000    77.67000000
   H    118.85000000   105.72000000    78.64000000
   N    121.22000000   105.49000000    77.51000000
   C    121.47000000   105.20000000    78.91000000
   C    121.22000000   103.74000000    79.23000000
   O    121.94000000   102.90000000    78.69000000
   C    122.89000000   105.64000000    79.27000000
   C    123.39000000   105.13000000    80.61000000
   N    124.27000000   104.13000000    80.48000000
   O    122.89000000   105.40000000    81.69000000
   H    122.00000000   105.74000000    76.92000000
   H    120.77000000   105.80000000    79.50000000
   H    122.78000000   106.72000000    79.40000000
   H    123.63000000   105.37000000    78.52000000
   H    124.62000000   103.81000000    79.59000000
   H    124.43000000   103.73000000    81.40000000
   N    120.33000000   103.37000000    80.16000000
   C    120.07000000   101.97000000    80.44000000
   C    118.83000000   101.76000000    81.29000000
   O    118.35000000   100.63000000    81.22000000
   H    119.66000000   103.97000000    80.63000000
   H    120.91000000   101.56000000    81.00000000
   H    120.01000000   101.44000000    79.50000000
   N    118.30000000   102.80000000    81.93000000
   C    116.94000000   102.82000000    82.44000000
   C    116.05000000   103.64000000    81.52000000
   O    116.47000000   104.58000000    80.85000000
   C    116.87000000   103.48000000    83.81000000
   C    117.32000000   102.53000000    84.91000000
   O    117.55000000   104.71000000    83.89000000
   H    118.88000000   103.60000000    82.16000000
   H    116.66000000   101.77000000    82.50000000
   H    115.88000000   103.74000000    84.19000000
   H    116.99000000   105.20000000    84.50000000
   H    116.78000000   101.58000000    84.88000000
   H    118.40000000   102.34000000    84.85000000
   H    117.10000000   103.06000000    85.84000000
   N    114.75000000   103.32000000    81.49000000
   C    113.68000000   103.97000000    80.76000000
   C    112.44000000   103.76000000    81.60000000
   O    112.44000000   102.90000000    82.49000000
   C    113.43000000   103.44000000    79.35000000
   C    114.60000000   103.92000000    78.50000000
   C    113.24000000   101.93000000    79.26000000
   C    114.64000000   103.59000000    77.01000000
   H    114.40000000   102.52000000    82.01000000
   H    113.86000000   105.05000000    80.73000000
   H    112.48000000   103.87000000    79.02000000
   H    115.56000000   103.54000000    78.86000000
   H    114.63000000   105.00000000    78.58000000
   H    112.80000000   101.49000000    78.37000000
   H    114.18000000   101.40000000    79.38000000
   H    112.66000000   101.54000000    80.10000000
   H    113.64000000   103.74000000    76.59000000
   H    115.42000000   104.19000000    76.53000000
   H    114.90000000   102.53000000    77.00000000
   N    111.41000000   104.58000000    81.38000000
   C    110.20000000   104.68000000    82.17000000
   C    109.01000000   105.23000000    81.38000000
   O    109.21000000   106.04000000    80.48000000
   C    110.51000000   105.60000000    83.35000000
   C    111.42000000   106.78000000    83.04000000
   O    112.61000000   106.71000000    83.43000000
   O    110.98000000   107.86000000    82.60000000
   H    111.53000000   105.20000000    80.59000000
   H    109.96000000   103.76000000    82.69000000
   H    110.90000000   104.98000000    84.16000000
   H    109.61000000   105.98000000    83.83000000
   N    107.79000000   104.75000000    81.61000000
   C    106.60000000   105.25000000    80.96000000
   C    106.57000000   105.05000000    79.45000000
   O    107.05000000   104.01000000    79.00000000
   C    105.39000000   104.60000000    81.62000000
   C    103.99000000   105.00000000    81.19000000
   C    103.48000000   104.47000000    80.00000000
   C    103.31000000   106.01000000    81.88000000
   C    102.19000000   104.83000000    79.61000000
   C    102.10000000   106.50000000    81.38000000
   C    101.54000000   105.90000000    80.25000000
   H    107.73000000   103.96000000    82.25000000
   H    106.54000000   106.30000000    81.22000000
   H    105.51000000   104.85000000    82.68000000
   H    105.53000000   103.52000000    81.57000000
   H    104.02000000   103.64000000    79.57000000
   H    103.78000000   106.45000000    82.75000000
   H    101.70000000   104.29000000    78.81000000
   H    101.55000000   107.27000000    81.90000000
   H    100.50000000   106.14000000    80.05000000
   N    106.13000000   106.09000000    78.74000000
   C    106.19000000   106.13000000    77.30000000
   C    107.50000000   105.81000000    76.58000000
   O    107.48000000   105.46000000    75.40000000
   C    105.61000000   107.46000000    76.82000000
   C    104.97000000   108.07000000    78.07000000
   C    105.86000000   107.46000000    79.15000000
   H    105.59000000   105.24000000    77.10000000
   H    106.41000000   108.12000000    76.46000000
   H    104.86000000   107.27000000    76.06000000
   H    104.92000000   109.16000000    78.07000000
   H    103.99000000   107.61000000    78.21000000
   H    106.76000000   108.06000000    79.26000000
   H    105.22000000   107.48000000    80.03000000
   N    108.60000000   105.61000000    77.31000000
   C    109.88000000   105.26000000    76.73000000
   C    109.96000000   103.76000000    76.48000000
   O    110.80000000   103.23000000    75.76000000
   C    110.98000000   105.86000000    77.61000000
   C    110.80000000   107.36000000    77.84000000
   C    111.68000000   107.91000000    78.95000000
   O    111.58000000   109.13000000    79.23000000
   O    112.52000000   107.23000000    79.56000000
   H    108.63000000   105.65000000    78.32000000
   H    110.02000000   105.80000000    75.80000000
   H    111.96000000   105.66000000    77.18000000
   H    110.92000000   105.34000000    78.57000000
   H    109.76000000   107.57000000    78.11000000
   H    111.12000000   107.87000000    76.93000000
   N    109.34000000   102.96000000    77.35000000
   C    109.21000000   101.53000000    77.19000000
   H    108.32200000   101.31100000    76.59700000
   H    110.09100000   101.13900000    76.68200000
   H    109.11700000   101.06100000    78.17000000
   H    108.67000000   103.43000000    77.95000000
  Ca    112.89800000   109.15800000    81.46000000
   O    114.87800000   107.80800000    82.46000000
   H    114.31800000   107.26800000    83.02000000
   H    115.74800000   107.74800000    82.85000000
   O    112.88800000   111.62800000    80.16000000
   H    112.50800000   112.28800000    80.73000000
   H    113.19800000   112.10800000    79.39000000
   O    110.58800000   110.65800000    81.84000000
   H    110.55800000   111.24800000    82.60000000
   H    110.10800000   111.12800000    81.16000000
   O    115.31800000   110.75800000    81.94000000
   H    115.52800000   111.67800000    82.04000000
   H    115.63800000   110.52800000    81.06000000

Ca 1.00



