%chk=loop3.apoCaM-CA-Ng.Init293.run36.water4.chk
%nprocshared=20
%mem=10GB
%nosave
#b3lyp/svp scf=(tight,noincore,xqc) Test 
#IOP(5/87=12) Density=Current Pop=(MK,readradii) iop(6/33=2) iop(6/42=6)

loop3.apoCaM-CA-Ng.Init293.run36.water4 

   0  1 
   C     28.43000000    72.23000000    79.11000000
   C     27.24000000    72.18000000    78.16000000
   O     26.18000000    71.66000000    78.48000000
   H     29.23400000    72.80900000    78.65500000
   H     28.12900000    72.70100000    80.04600000
   H     28.78000000    71.21700000    79.30900000
   N     27.45000000    72.70000000    76.95000000
   C     26.64000000    72.49000000    75.77000000
   C     25.38000000    73.32000000    75.91000000
   O     25.16000000    74.21000000    76.73000000
   C     27.50000000    73.11000000    74.67000000
   C     26.93000000    72.87000000    73.28000000
   O     26.17000000    71.91000000    73.03000000
   O     27.47000000    73.58000000    72.40000000
   H     28.32000000    73.21000000    76.82000000
   H     26.44000000    71.42000000    75.62000000
   H     28.48000000    72.64000000    74.72000000
   H     27.67000000    74.15000000    74.94000000
   N     24.46000000    73.05000000    74.98000000
   C     23.21000000    73.73000000    74.69000000
   C     23.25000000    75.19000000    74.25000000
   O     22.22000000    75.71000000    73.82000000
   C     22.05000000    73.39000000    75.62000000
   C     21.74000000    71.90000000    75.77000000
   C     20.74000000    71.54000000    76.86000000
   C     20.51000000    70.03000000    76.87000000
   N     19.58000000    69.62000000    77.94000000
   H     24.75000000    72.44000000    74.23000000
   H     22.85000000    73.24000000    73.78000000
   H     21.13000000    73.87000000    75.28000000
   H     22.25000000    73.86000000    76.58000000
   H     22.64000000    71.55000000    76.27000000
   H     21.56000000    71.39000000    74.82000000
   H     19.76000000    71.92000000    76.54000000
   H     21.11000000    71.87000000    77.83000000
   H     21.49000000    69.58000000    77.00000000
   H     20.18000000    69.63000000    75.91000000
   H     18.65000000    70.01000000    77.91000000
   H     19.49000000    68.62000000    77.89000000
   H     19.93000000    69.79000000    78.87000000
   N     24.37000000    75.91000000    74.32000000
   C     24.36000000    77.35000000    74.21000000
   C     25.73000000    77.97000000    73.94000000
   O     26.73000000    77.26000000    74.04000000
   C     23.86000000    77.88000000    75.55000000
   C     23.39000000    79.33000000    75.51000000
   O     23.19000000    79.94000000    76.58000000
   O     23.02000000    79.80000000    74.42000000
   H     25.29000000    75.55000000    74.55000000
   H     23.71000000    77.65000000    73.38000000
   H     24.63000000    77.72000000    76.30000000
   H     23.04000000    77.37000000    76.07000000
   N     25.75000000    79.29000000    73.70000000
   C     26.90000000    80.16000000    73.80000000
   C     26.56000000    81.56000000    73.32000000
   O     25.62000000    81.66000000    72.55000000
   H     24.87000000    79.73000000    73.47000000
   H     27.78000000    79.75000000    73.29000000
   H     27.27000000    80.20000000    74.82000000
   N     27.28000000    82.59000000    73.78000000
   C     26.81000000    83.96000000    73.80000000
   C     27.73000000    84.94000000    73.08000000
   O     27.55000000    86.14000000    73.22000000
   C     26.58000000    84.32000000    75.27000000
   C     25.65000000    83.37000000    76.01000000
   N     25.41000000    83.63000000    77.30000000
   O     24.99000000    82.48000000    75.47000000
   H     28.13000000    82.46000000    74.31000000
   H     25.85000000    83.89000000    73.30000000
   H     26.06000000    85.28000000    75.30000000
   H     27.51000000    84.32000000    75.83000000
   H     25.91000000    84.42000000    77.67000000
   H     24.59000000    83.26000000    77.76000000
   N     28.86000000    84.49000000    72.53000000
   C     29.69000000    85.39000000    71.75000000
   C     30.43000000    86.50000000    72.50000000
   O     31.21000000    86.20000000    73.39000000
   H     29.11000000    83.51000000    72.55000000
   H     29.07000000    85.87000000    71.00000000
   H     30.48000000    84.82000000    71.27000000
   N     30.10000000    87.75000000    72.16000000
   C     30.54000000    88.93000000    72.87000000
   C     30.19000000    88.97000000    74.35000000
   O     30.77000000    89.80000000    75.04000000
   C     32.03000000    89.17000000    72.59000000
   C     32.42000000    89.21000000    71.13000000
   C     33.12000000    88.17000000    70.51000000
   C     32.07000000    90.38000000    70.44000000
   C     33.48000000    88.29000000    69.16000000
   C     32.43000000    90.50000000    69.10000000
   C     33.08000000    89.43000000    68.44000000
   O     33.11000000    89.43000000    67.08000000
   H     29.36000000    87.82000000    71.48000000
   H     30.01000000    89.81000000    72.49000000
   H     32.64000000    88.44000000    73.11000000
   H     32.18000000    90.17000000    72.99000000
   H     33.34000000    87.26000000    71.04000000
   H     31.49000000    91.20000000    70.85000000
   H     34.03000000    87.50000000    68.66000000
   H     32.20000000    91.41000000    68.57000000
   H     32.79000000    90.23000000    66.64000000
   N     29.27000000    88.11000000    74.79000000
   C     28.72000000    87.95000000    76.12000000
   C     28.06000000    89.18000000    76.72000000
   O     26.94000000    89.01000000    77.20000000
   C     29.74000000    87.29000000    77.04000000
   C     29.98000000    85.87000000    76.54000000
   C     29.63000000    87.28000000    78.56000000
   C     31.38000000    85.27000000    76.66000000
   H     29.06000000    87.39000000    74.10000000
   H     27.89000000    87.26000000    75.96000000
   H     30.70000000    87.80000000    76.91000000
   H     29.72000000    85.80000000    75.49000000
   H     29.39000000    85.16000000    77.12000000
   H     29.75000000    88.26000000    79.03000000
   H     28.79000000    86.76000000    79.02000000
   H     30.52000000    86.80000000    78.98000000
   H     31.51000000    85.03000000    77.72000000
   H     31.46000000    84.38000000    76.03000000
   H     32.14000000    85.98000000    76.34000000
   N     28.54000000    90.42000000    76.61000000
   C     27.84000000    91.58000000    77.11000000
   C     27.84000000    91.68000000    78.63000000
   O     26.98000000    92.36000000    79.19000000
   C     28.43000000    92.84000000    76.49000000
   O     28.73000000    92.72000000    75.12000000
   H     29.47000000    90.60000000    76.25000000
   H     26.82000000    91.68000000    76.72000000
   H     29.25000000    93.20000000    77.11000000
   H     27.70000000    93.64000000    76.60000000
   H     29.51000000    93.26000000    75.00000000
   N     28.75000000    91.01000000    79.34000000
   C     28.68000000    90.74000000    80.76000000
   C     27.30000000    90.27000000    81.17000000
   O     26.89000000    90.63000000    82.28000000
   C     29.26000000    91.95000000    81.49000000
   H     29.38000000    90.45000000    78.79000000
   H     29.28000000    89.84000000    80.92000000
   H     29.14000000    91.99000000    82.57000000
   H     30.28000000    92.09000000    81.13000000
   H     28.75000000    92.83000000    81.11000000
   N     26.59000000    89.58000000    80.27000000
   C     25.20000000    89.25000000    80.48000000
   C     24.85000000    87.77000000    80.53000000
   O     25.69000000    86.92000000    80.28000000
   C     24.40000000    89.98000000    79.41000000
   H     26.99000000    89.54000000    79.34000000
   H     24.92000000    89.73000000    81.42000000
   H     23.34000000    90.01000000    79.69000000
   H     24.72000000    91.02000000    79.32000000
   H     24.60000000    89.42000000    78.50000000
   N     23.64000000    87.41000000    80.94000000
   C     23.17000000    86.05000000    81.13000000
   C     24.03000000    85.23000000    82.08000000
   O     24.08000000    84.00000000    82.01000000
   C     22.95000000    85.44000000    79.75000000
   C     21.86000000    84.37000000    79.71000000
   C     21.82000000    83.67000000    78.36000000
   O     20.83000000    83.66000000    77.60000000
   O     22.87000000    83.05000000    78.09000000
   H     23.05000000    88.14000000    81.32000000
   H     22.22000000    86.13000000    81.66000000
   H     23.87000000    85.03000000    79.34000000
   H     22.71000000    86.17000000    78.98000000
   H     20.84000000    84.74000000    79.86000000
   H     22.19000000    83.66000000    80.46000000
   N     24.68000000    85.87000000    83.05000000
   C     25.68000000    85.30000000    83.94000000
   H     26.54400000    85.96300000    83.98700000
   H     25.25600000    85.18500000    84.93800000
   H     25.99100000    84.32600000    83.56200000
   H     24.66000000    86.87000000    82.98000000
  Ca     22.17000000    82.11000000    75.77000000
   O     22.86000000    84.69000000    74.84000000
   H     22.94000000    84.55000000    73.90000000
   H     23.02000000    85.62000000    74.97000000
   O     22.96000000    82.54000000    73.17000000
   H     23.79000000    82.08000000    73.07000000
   H     22.54000000    82.47000000    72.31000000
   O     19.96000000    80.88000000    75.06000000
   H     20.10000000    80.21000000    74.39000000
   H     19.18000000    80.60000000    75.53000000
   O     20.30000000    83.82000000    74.16000000
   H     19.69000000    83.98000000    73.44000000
   H     20.58000000    84.70000000    74.43000000

Ca 1.00



