%chk=loop1.apoCaM-CA-Ng.Init293.run39.water4.chk
%nprocshared=20
%mem=10GB
%nosave
#b3lyp/svp scf=(tight,noincore,xqc) Test 
#IOP(5/87=12) Density=Current Pop=(MK,readradii) iop(6/33=2) iop(6/42=6)

loop1.apoCaM-CA-Ng.Init293.run39.water4 

   0  1 
   C     31.58000000    81.74000000    29.21000000
   C     31.91000000    81.23000000    30.60000000
   O     32.56000000    80.22000000    30.89000000
   H     30.76300000    82.45900000    29.27200000
   H     32.45800000    82.22400000    28.78200000
   H     31.28100000    80.90400000    28.57700000
   N     31.48000000    82.02000000    31.58000000
   C     31.71000000    81.81000000    33.00000000
   C     30.66000000    80.98000000    33.73000000
   O     30.62000000    80.97000000    34.96000000
   C     32.09000000    83.09000000    33.74000000
   C     31.04000000    84.19000000    33.68000000
   O     30.65000000    84.62000000    34.78000000
   O     30.65000000    84.62000000    32.57000000
   H     30.84000000    82.74000000    31.27000000
   H     32.57000000    81.14000000    33.02000000
   H     32.98000000    83.51000000    33.27000000
   H     32.34000000    82.84000000    34.77000000
   N     29.65000000    80.49000000    33.00000000
   C     28.34000000    80.12000000    33.49000000
   C     27.89000000    78.79000000    32.92000000
   O     27.22000000    78.68000000    31.90000000
   C     27.36000000    81.25000000    33.18000000
   C     27.83000000    82.66000000    33.54000000
   C     26.74000000    83.72000000    33.42000000
   C     27.18000000    85.07000000    33.96000000
   N     28.12000000    85.81000000    33.10000000
   H     29.66000000    80.64000000    32.00000000
   H     28.24000000    80.21000000    34.58000000
   H     26.42000000    80.92000000    33.63000000
   H     27.25000000    81.23000000    32.10000000
   H     28.57000000    82.96000000    32.79000000
   H     28.12000000    82.70000000    34.59000000
   H     25.97000000    83.39000000    34.12000000
   H     26.43000000    83.83000000    32.38000000
   H     27.47000000    84.94000000    35.00000000
   H     26.20000000    85.56000000    33.98000000
   H     29.05000000    85.44000000    33.18000000
   H     27.97000000    85.65000000    32.11000000
   H     28.09000000    86.80000000    33.26000000
   N     28.23000000    77.64000000    33.51000000
   C     29.12000000    77.33000000    34.61000000
   C     28.84000000    78.09000000    35.90000000
   O     27.71000000    78.57000000    36.00000000
   C     30.55000000    77.17000000    34.09000000
   C     30.74000000    76.26000000    32.89000000
   O     31.73000000    76.46000000    32.16000000
   O     30.00000000    75.26000000    32.73000000
   H     27.88000000    76.83000000    33.01000000
   H     28.95000000    76.28000000    34.82000000
   H     31.28000000    76.66000000    34.71000000
   H     30.92000000    78.14000000    33.76000000
   N     29.64000000    78.11000000    36.97000000
   C     31.04000000    77.76000000    37.03000000
   C     31.77000000    78.04000000    38.34000000
   O     31.19000000    78.27000000    39.40000000
   H     29.24000000    78.51000000    37.81000000
   H     31.47000000    78.43000000    36.29000000
   H     31.21000000    76.71000000    36.83000000
   N     33.10000000    78.16000000    38.33000000
   C     33.95000000    77.84000000    37.20000000
   C     35.02000000    78.88000000    36.92000000
   O     35.72000000    79.31000000    37.83000000
   C     34.60000000    76.46000000    37.29000000
   C     35.38000000    76.16000000    36.01000000
   O     36.56000000    75.76000000    36.06000000
   O     34.84000000    76.47000000    34.93000000
   H     33.52000000    78.36000000    39.23000000
   H     33.37000000    77.78000000    36.29000000
   H     33.79000000    75.74000000    37.35000000
   H     35.32000000    76.28000000    38.09000000
   N     35.34000000    79.24000000    35.67000000
   C     36.41000000    80.14000000    35.27000000
   C     36.63000000    80.37000000    33.78000000
   O     35.72000000    80.25000000    32.97000000
   H     34.91000000    78.63000000    35.00000000
   H     37.33000000    79.78000000    35.72000000
   H     36.20000000    81.07000000    35.79000000
   N     37.82000000    80.85000000    33.39000000
   C     38.22000000    81.29000000    32.07000000
   C     38.05000000    80.24000000    30.98000000
   O     38.14000000    79.04000000    31.22000000
   C     39.67000000    81.77000000    32.09000000
   C     40.63000000    80.97000000    32.96000000
   O     39.69000000    83.08000000    32.60000000
   H     38.44000000    81.10000000    34.14000000
   H     37.50000000    82.08000000    31.83000000
   H     39.97000000    81.74000000    31.04000000
   H     40.57000000    83.39000000    32.81000000
   H     40.66000000    81.32000000    33.99000000
   H     40.44000000    79.90000000    33.00000000
   H     41.63000000    81.19000000    32.57000000
   N     37.61000000    80.73000000    29.82000000
   C     37.30000000    79.92000000    28.65000000
   C     38.45000000    79.51000000    27.74000000
   O     39.14000000    80.37000000    27.20000000
   C     36.18000000    80.59000000    27.87000000
   C     35.85000000    79.80000000    26.61000000
   C     36.44000000    82.07000000    27.59000000
   C     35.37000000    78.40000000    26.98000000
   H     37.56000000    81.73000000    29.70000000
   H     36.91000000    79.01000000    29.11000000
   H     35.31000000    80.51000000    28.52000000
   H     36.74000000    79.87000000    25.97000000
   H     34.97000000    80.28000000    26.19000000
   H     35.85000000    82.50000000    26.79000000
   H     36.37000000    82.79000000    28.41000000
   H     37.44000000    82.22000000    27.19000000
   H     36.20000000    77.72000000    27.14000000
   H     34.70000000    78.41000000    27.84000000
   H     34.82000000    78.04000000    26.10000000
   N     38.66000000    78.20000000    27.65000000
   C     39.76000000    77.58000000    26.94000000
   C     39.40000000    76.34000000    26.15000000
   O     40.28000000    75.80000000    25.48000000
   C     40.91000000    77.23000000    27.88000000
   C     40.47000000    76.21000000    28.92000000
   O     41.47000000    78.33000000    28.56000000
   H     38.04000000    77.64000000    28.22000000
   H     40.23000000    78.29000000    26.25000000
   H     41.75000000    76.81000000    27.31000000
   H     41.65000000    79.04000000    27.93000000
   H     40.02000000    75.33000000    28.46000000
   H     41.31000000    75.96000000    29.57000000
   H     39.72000000    76.71000000    29.54000000
   N     38.15000000    75.88000000    26.15000000
   C     37.47000000    74.77000000    25.52000000
   C     37.99000000    73.39000000    25.90000000
   O     38.95000000    73.18000000    26.64000000
   C     37.44000000    75.02000000    24.02000000
   C     37.06000000    76.42000000    23.54000000
   O     36.60000000    74.11000000    23.33000000
   H     37.69000000    76.21000000    26.99000000
   H     36.42000000    74.84000000    25.81000000
   H     38.46000000    74.95000000    23.66000000
   H     36.73000000    74.35000000    22.41000000
   H     37.63000000    77.17000000    24.09000000
   H     37.41000000    76.54000000    22.52000000
   H     35.99000000    76.60000000    23.59000000
   N     37.21000000    72.39000000    25.47000000
   C     37.46000000    70.98000000    25.69000000
   C     36.76000000    70.40000000    26.91000000
   O     37.36000000    69.47000000    27.45000000
   C     37.20000000    70.16000000    24.43000000
   C     37.94000000    70.47000000    23.13000000
   C     39.41000000    70.19000000    23.42000000
   C     40.39000000    70.55000000    22.30000000
   N     40.40000000    69.61000000    21.17000000
   H     36.46000000    72.65000000    24.86000000
   H     38.52000000    70.75000000    25.85000000
   H     36.16000000    70.40000000    24.21000000
   H     37.39000000    69.12000000    24.69000000
   H     37.90000000    71.53000000    22.87000000
   H     37.53000000    69.85000000    22.33000000
   H     39.60000000    69.14000000    23.63000000
   H     39.78000000    70.78000000    24.26000000
   H     41.38000000    70.74000000    22.70000000
   H     40.03000000    71.52000000    21.97000000
   H     40.46000000    68.63000000    21.42000000
   H     39.55000000    69.62000000    20.62000000
   H     41.09000000    69.79000000    20.46000000
   N     35.58000000    70.76000000    27.43000000
   C     34.63000000    71.85000000    27.28000000
   C     34.19000000    72.19000000    25.86000000
   O     34.39000000    73.29000000    25.37000000
   C     34.93000000    72.99000000    28.25000000
   C     33.77000000    73.98000000    28.40000000
   C     33.93000000    74.57000000    29.79000000
   O     34.61000000    75.61000000    29.95000000
   O     33.26000000    74.11000000    30.74000000
   H     35.42000000    70.19000000    28.24000000
   H     33.67000000    71.45000000    27.60000000
   H     35.73000000    73.59000000    27.83000000
   H     35.11000000    72.62000000    29.26000000
   H     32.86000000    73.43000000    28.20000000
   H     33.96000000    74.70000000    27.60000000
   N     33.74000000    71.20000000    25.09000000
   C     33.21000000    71.33000000    23.75000000
   H     32.32700000    71.96800000    23.77000000
   H     33.96500000    71.77500000    23.10200000
   H     32.93800000    70.34600000    23.36900000
   H     33.59000000    70.33000000    25.57000000
  Ca     34.20000000    75.89000000    32.39000000
   O     33.96000000    78.48000000    32.14000000
   H     34.60000000    79.14000000    32.39000000
   H     33.33000000    78.95000000    31.60000000
   O     33.39000000    74.02000000    33.85000000
   H     33.88000000    73.60000000    34.57000000
   H     33.01000000    73.28000000    33.37000000
   O     36.83000000    76.70000000    32.20000000
   H     37.22000000    77.56000000    32.02000000
   H     37.49000000    76.25000000    32.72000000
   O     36.02000000    73.97000000    32.46000000
   H     36.43000000    73.33000000    33.03000000
   H     36.74000000    74.50000000    32.12000000

Ca 1.00



