%chk=loop1.holoCaM-CaMKII.run24.water2.chk
%nprocshared=20
%mem=10GB
%nosave
#b3lyp/svp scf=(tight,noincore,xqc) Test 
#IOP(5/87=12) Density=Current Pop=(MK,readradii) iop(6/33=2) iop(6/42=6)

loop1.holoCaM-CaMKII.run24.water2 

   0  1 
   C     79.98000000    48.68000000    20.78000000
   C     80.79000000    48.12000000    19.62000000
   O     80.31000000    47.20000000    18.95000000
   H     78.99300000    48.21800000    20.78900000
   H     80.49100000    48.46300000    21.71800000
   H     79.87500000    49.75900000    20.66300000
   N     81.96000000    48.65000000    19.26000000
   C     82.94000000    48.16000000    18.31000000
   C     83.66000000    46.95000000    18.89000000
   O     84.13000000    47.06000000    20.02000000
   C     84.02000000    49.21000000    18.08000000
   C     85.12000000    48.83000000    17.10000000
   O     86.10000000    49.58000000    16.93000000
   O     84.96000000    47.79000000    16.43000000
   H     82.24000000    49.40000000    19.88000000
   H     82.37000000    47.95000000    17.40000000
   H     84.48000000    49.43000000    19.05000000
   H     83.56000000    50.16000000    17.79000000
   N     83.78000000    45.79000000    18.24000000
   C     83.98000000    44.47000000    18.81000000
   C     85.16000000    43.64000000    18.35000000
   O     85.58000000    42.70000000    19.04000000
   C     82.64000000    43.74000000    18.92000000
   C     82.55000000    42.78000000    20.10000000
   C     82.81000000    43.33000000    21.50000000
   C     82.19000000    44.69000000    21.81000000
   N     80.94000000    44.43000000    22.53000000
   H     83.40000000    45.83000000    17.31000000
   H     84.41000000    44.63000000    19.80000000
   H     82.50000000    43.19000000    18.00000000
   H     81.85000000    44.50000000    18.99000000
   H     83.17000000    41.91000000    19.91000000
   H     81.53000000    42.39000000    20.16000000
   H     83.86000000    43.30000000    21.80000000
   H     82.35000000    42.62000000    22.19000000
   H     81.96000000    45.27000000    20.92000000
   H     82.91000000    45.24000000    22.41000000
   H     81.01000000    44.34000000    23.54000000
   H     80.45000000    45.30000000    22.40000000
   H     80.38000000    43.75000000    22.03000000
   N     85.64000000    44.05000000    17.18000000
   C     86.98000000    43.67000000    16.77000000
   C     87.95000000    44.83000000    16.93000000
   O     89.17000000    44.65000000    16.92000000
   C     86.96000000    43.14000000    15.34000000
   C     86.08000000    43.83000000    14.31000000
   O     85.55000000    43.18000000    13.38000000
   O     85.83000000    45.04000000    14.52000000
   H     85.14000000    44.80000000    16.73000000
   H     87.31000000    42.84000000    17.39000000
   H     86.52000000    42.16000000    15.47000000
   H     87.98000000    42.99000000    14.98000000
   N     87.46000000    46.03000000    17.28000000
   C     88.24000000    47.16000000    17.75000000
   C     89.05000000    47.80000000    16.64000000
   O     90.24000000    48.01000000    16.86000000
   H     86.46000000    46.09000000    17.22000000
   H     88.98000000    46.72000000    18.42000000
   H     87.72000000    47.86000000    18.40000000
   N     88.44000000    48.04000000    15.47000000
   C     89.04000000    48.72000000    14.34000000
   C     88.85000000    50.23000000    14.28000000
   O     89.22000000    50.85000000    13.28000000
   C     88.60000000    48.08000000    13.03000000
   C     87.08000000    47.96000000    12.97000000
   O     86.65000000    46.92000000    12.42000000
   O     86.34000000    48.80000000    13.53000000
   H     87.44000000    48.00000000    15.55000000
   H     90.12000000    48.60000000    14.39000000
   H     88.99000000    47.07000000    12.99000000
   H     89.07000000    48.62000000    12.21000000
   N     88.21000000    50.82000000    15.28000000
   C     87.78000000    52.21000000    15.26000000
   C     86.48000000    52.55000000    14.55000000
   O     86.23000000    53.74000000    14.37000000
   H     87.77000000    50.18000000    15.92000000
   H     88.63000000    52.70000000    14.79000000
   H     87.72000000    52.59000000    16.28000000
   N     85.62000000    51.58000000    14.24000000
   C     84.41000000    51.84000000    13.48000000
   C     83.31000000    50.86000000    13.86000000
   O     83.54000000    49.68000000    14.08000000
   C     84.69000000    51.62000000    11.99000000
   C     85.29000000    52.80000000    11.23000000
   O     85.50000000    50.49000000    11.75000000
   H     85.76000000    50.61000000    14.50000000
   H     84.16000000    52.86000000    13.74000000
   H     83.75000000    51.58000000    11.44000000
   H     85.78000000    50.07000000    12.56000000
   H     85.44000000    52.61000000    10.17000000
   H     84.59000000    53.63000000    11.33000000
   H     86.18000000    53.06000000    11.80000000
   N     82.05000000    51.30000000    13.91000000
   C     80.93000000    50.51000000    14.38000000
   C     80.05000000    50.14000000    13.19000000
   O     79.55000000    51.00000000    12.48000000
   C     80.09000000    51.14000000    15.49000000
   C     80.86000000    52.06000000    16.42000000
   C     79.26000000    50.09000000    16.23000000
   C     80.09000000    52.76000000    17.55000000
   H     81.91000000    52.27000000    13.66000000
   H     81.29000000    49.57000000    14.80000000
   H     79.22000000    51.68000000    15.11000000
   H     81.30000000    52.87000000    15.84000000
   H     81.69000000    51.53000000    16.89000000
   H     79.98000000    49.60000000    16.89000000
   H     78.51000000    50.70000000    16.72000000
   H     78.80000000    49.35000000    15.58000000
   H     79.23000000    53.34000000    17.24000000
   H     79.76000000    51.95000000    18.20000000
   H     80.78000000    53.38000000    18.11000000
   N     79.84000000    48.85000000    12.93000000
   C     79.01000000    48.21000000    11.92000000
   C     77.57000000    48.03000000    12.37000000
   O     77.24000000    48.13000000    13.55000000
   C     79.50000000    46.83000000    11.47000000
   C     80.80000000    46.79000000    10.68000000
   O     79.60000000    45.96000000    12.57000000
   H     80.46000000    48.20000000    13.39000000
   H     78.93000000    48.85000000    11.05000000
   H     78.72000000    46.43000000    10.82000000
   H     80.44000000    46.14000000    13.01000000
   H     80.74000000    47.09000000     9.64000000
   H     81.61000000    47.39000000    11.10000000
   H     81.13000000    45.75000000    10.62000000
   N     76.62000000    47.88000000    11.45000000
   C     75.24000000    47.63000000    11.81000000
   C     75.01000000    46.40000000    12.69000000
   O     74.12000000    46.40000000    13.53000000
   C     74.55000000    47.32000000    10.49000000
   C     73.04000000    47.23000000    10.69000000
   O     74.88000000    48.29000000     9.52000000
   H     76.83000000    47.97000000    10.46000000
   H     74.72000000    48.49000000    12.22000000
   H     74.91000000    46.42000000     9.99000000
   H     74.51000000    47.94000000     8.70000000
   H     72.78000000    46.28000000    11.15000000
   H     72.61000000    48.01000000    11.31000000
   H     72.56000000    47.31000000     9.71000000
   N     75.82000000    45.36000000    12.48000000
   C     75.79000000    44.10000000    13.19000000
   C     76.57000000    44.13000000    14.50000000
   O     76.34000000    43.34000000    15.42000000
   C     76.42000000    43.07000000    12.26000000
   C     76.43000000    41.64000000    12.80000000
   C     75.03000000    41.06000000    12.62000000
   C     74.59000000    40.88000000    11.17000000
   N     73.21000000    40.37000000    11.10000000
   H     76.55000000    45.49000000    11.79000000
   H     74.75000000    43.88000000    13.41000000
   H     77.43000000    43.46000000    12.11000000
   H     76.04000000    43.11000000    11.24000000
   H     76.67000000    41.54000000    13.86000000
   H     77.12000000    41.04000000    12.20000000
   H     74.36000000    41.62000000    13.27000000
   H     75.01000000    40.07000000    13.07000000
   H     75.19000000    40.12000000    10.68000000
   H     74.65000000    41.80000000    10.59000000
   H     73.05000000    39.50000000    11.59000000
   H     72.61000000    41.08000000    11.50000000
   H     72.97000000    40.28000000    10.12000000
   N     77.47000000    45.10000000    14.66000000
   C     78.09000000    45.32000000    15.95000000
   C     77.05000000    45.95000000    16.86000000
   O     76.88000000    45.47000000    17.98000000
   C     79.33000000    46.17000000    15.74000000
   C     80.58000000    45.29000000    15.63000000
   C     81.81000000    46.01000000    15.11000000
   O     81.67000000    46.89000000    14.23000000
   O     82.93000000    45.59000000    15.48000000
   H     77.66000000    45.75000000    13.90000000
   H     78.34000000    44.36000000    16.40000000
   H     79.52000000    46.90000000    16.53000000
   H     79.21000000    46.71000000    14.80000000
   H     80.51000000    44.45000000    14.94000000
   H     80.83000000    44.86000000    16.60000000
   N     76.31000000    46.93000000    16.34000000
   C     75.12000000    47.46000000    16.99000000
   H     74.28700000    46.77400000    16.83600000
   H     75.30700000    47.57000000    18.05800000
   H     74.87400000    48.43200000    16.56200000
   H     76.63000000    47.25000000    15.44000000
  Ca     84.45000000    46.99000000    13.94000000
   O     83.64000000    44.90000000    12.32000000
   H     84.21000000    44.14000000    12.44000000
   H     82.79000000    44.52000000    12.09000000
   O     84.23000000    47.81000000    11.44000000
   H     84.52000000    47.24000000    10.73000000
   H     84.81000000    48.56000000    11.40000000

Ca 1.00



