%chk=loop3.apoCaM-CA-Ng.Init293.run7.water6.chk
%nprocshared=20
%mem=10GB
%nosave
#b3lyp/svp scf=(tight,noincore,xqc) Test 
#IOP(5/87=12) Density=Current Pop=(MK,readradii) iop(6/33=2) iop(6/42=6)

loop3.apoCaM-CA-Ng.Init293.run7.water6 

   0  1 
   C     59.54000000    60.83000000    36.93000000
   C     59.22000000    62.25000000    36.48000000
   O     58.60000000    62.45000000    35.44000000
   H     60.45000000    60.83600000    37.53100000
   H     58.71400000    60.44200000    37.52600000
   H     59.68700000    60.19600000    36.05600000
   N     59.57000000    63.24000000    37.30000000
   C     59.12000000    64.62000000    37.31000000
   C     59.42000000    65.23000000    35.95000000
   O     60.55000000    65.09000000    35.49000000
   C     57.69000000    64.77000000    37.84000000
   C     57.57000000    64.26000000    39.27000000
   O     57.19000000    65.00000000    40.20000000
   O     57.81000000    63.07000000    39.54000000
   H     60.25000000    63.07000000    38.03000000
   H     59.74000000    65.20000000    38.00000000
   H     57.05000000    64.14000000    37.22000000
   H     57.32000000    65.79000000    37.79000000
   N     58.48000000    65.94000000    35.32000000
   C     58.68000000    66.51000000    34.00000000
   C     58.51000000    68.02000000    33.92000000
   O     58.87000000    68.60000000    32.90000000
   C     57.77000000    65.85000000    32.97000000
   C     56.29000000    66.12000000    33.21000000
   C     55.48000000    65.39000000    34.27000000
   C     54.19000000    66.16000000    34.56000000
   N     53.38000000    65.53000000    35.61000000
   H     57.63000000    66.17000000    35.82000000
   H     59.69000000    66.34000000    33.63000000
   H     57.91000000    64.78000000    33.15000000
   H     57.98000000    66.15000000    31.95000000
   H     55.90000000    65.77000000    32.25000000
   H     56.16000000    67.20000000    33.25000000
   H     55.87000000    65.19000000    35.27000000
   H     55.21000000    64.44000000    33.80000000
   H     53.60000000    66.20000000    33.65000000
   H     54.34000000    67.18000000    34.92000000
   H     52.43000000    65.87000000    35.67000000
   H     53.31000000    64.53000000    35.46000000
   H     53.84000000    65.61000000    36.51000000
   N     58.04000000    68.67000000    34.98000000
   C     58.09000000    70.10000000    35.23000000
   C     58.01000000    70.41000000    36.72000000
   O     57.55000000    69.58000000    37.50000000
   C     56.93000000    70.75000000    34.47000000
   C     55.56000000    70.09000000    34.62000000
   O     55.21000000    69.63000000    35.72000000
   O     54.78000000    70.10000000    33.64000000
   H     57.54000000    68.12000000    35.66000000
   H     59.06000000    70.52000000    34.96000000
   H     57.12000000    70.81000000    33.40000000
   H     56.91000000    71.78000000    34.81000000
   N     58.47000000    71.60000000    37.10000000
   C     58.51000000    72.05000000    38.48000000
   C     57.17000000    72.63000000    38.92000000
   O     56.52000000    73.34000000    38.16000000
   H     58.94000000    72.17000000    36.42000000
   H     59.25000000    72.84000000    38.61000000
   H     58.75000000    71.20000000    39.12000000
   N     56.70000000    72.36000000    40.14000000
   C     55.39000000    72.64000000    40.68000000
   C     55.32000000    73.18000000    42.10000000
   O     54.32000000    73.80000000    42.47000000
   C     54.67000000    71.30000000    40.67000000
   C     54.57000000    70.53000000    39.36000000
   N     54.47000000    71.23000000    38.23000000
   O     54.56000000    69.31000000    39.23000000
   H     57.26000000    71.74000000    40.71000000
   H     54.85000000    73.25000000    39.95000000
   H     53.66000000    71.43000000    41.07000000
   H     55.35000000    70.62000000    41.17000000
   H     54.36000000    72.24000000    38.25000000
   H     54.44000000    70.71000000    37.36000000
   N     56.37000000    72.97000000    42.89000000
   C     56.29000000    73.29000000    44.30000000
   C     55.33000000    72.36000000    45.03000000
   O     55.50000000    71.15000000    44.92000000
   H     57.15000000    72.41000000    42.59000000
   H     55.97000000    74.33000000    44.33000000
   H     57.27000000    73.10000000    44.75000000
   N     54.33000000    72.91000000    45.72000000
   C     53.28000000    72.36000000    46.56000000
   C     52.16000000    71.57000000    45.90000000
   O     51.12000000    71.32000000    46.50000000
   C     53.93000000    71.59000000    47.71000000
   C     53.24000000    71.61000000    49.05000000
   C     52.56000000    72.70000000    49.61000000
   C     53.40000000    70.51000000    49.90000000
   C     51.99000000    72.69000000    50.88000000
   C     52.82000000    70.45000000    51.17000000
   C     52.02000000    71.51000000    51.64000000
   O     51.67000000    71.57000000    52.96000000
   H     54.29000000    73.91000000    45.61000000
   H     52.87000000    73.26000000    47.01000000
   H     54.92000000    72.01000000    47.86000000
   H     54.05000000    70.58000000    47.32000000
   H     52.59000000    73.62000000    49.03000000
   H     53.99000000    69.74000000    49.43000000
   H     51.40000000    73.55000000    51.17000000
   H     52.99000000    69.64000000    51.87000000
   H     51.09000000    72.28000000    53.23000000
   N     52.28000000    71.16000000    44.63000000
   C     51.31000000    70.46000000    43.82000000
   C     49.97000000    71.14000000    43.58000000
   O     49.58000000    71.17000000    42.41000000
   C     51.24000000    68.96000000    44.13000000
   C     52.49000000    68.13000000    44.39000000
   C     50.39000000    68.23000000    43.09000000
   C     53.56000000    68.25000000    43.31000000
   H     53.19000000    71.36000000    44.26000000
   H     51.78000000    70.48000000    42.83000000
   H     50.72000000    68.82000000    45.07000000
   H     52.20000000    67.08000000    44.53000000
   H     52.83000000    68.57000000    45.33000000
   H     50.76000000    68.28000000    42.07000000
   H     50.20000000    67.19000000    43.34000000
   H     49.39000000    68.66000000    43.04000000
   H     53.12000000    68.18000000    42.32000000
   H     53.91000000    69.28000000    43.39000000
   H     54.27000000    67.42000000    43.39000000
   N     49.28000000    71.76000000    44.53000000
   C     48.07000000    72.53000000    44.31000000
   C     46.90000000    71.69000000    43.82000000
   O     45.94000000    72.25000000    43.30000000
   C     47.59000000    73.18000000    45.60000000
   O     48.59000000    74.05000000    46.10000000
   H     49.69000000    71.82000000    45.45000000
   H     48.10000000    73.43000000    43.70000000
   H     47.28000000    72.47000000    46.37000000
   H     46.75000000    73.86000000    45.47000000
   H     48.02000000    74.68000000    46.55000000
   N     46.95000000    70.36000000    44.00000000
   C     46.25000000    69.31000000    43.29000000
   C     46.13000000    69.48000000    41.78000000
   O     45.07000000    69.19000000    41.23000000
   C     44.92000000    69.09000000    44.01000000
   H     47.70000000    70.01000000    44.57000000
   H     46.85000000    68.42000000    43.47000000
   H     44.49000000    68.16000000    43.65000000
   H     45.11000000    69.00000000    45.08000000
   H     44.37000000    70.00000000    43.78000000
   N     47.11000000    70.15000000    41.17000000
   C     46.97000000    70.68000000    39.83000000
   C     47.34000000    69.51000000    38.93000000
   O     48.19000000    68.66000000    39.19000000
   C     47.79000000    71.95000000    39.62000000
   H     47.96000000    70.32000000    41.69000000
   H     45.93000000    70.85000000    39.57000000
   H     47.75000000    72.37000000    38.61000000
   H     47.46000000    72.78000000    40.24000000
   H     48.85000000    71.79000000    39.81000000
   N     46.75000000    69.51000000    37.73000000
   C     47.08000000    68.72000000    36.56000000
   C     47.20000000    67.22000000    36.75000000
   O     48.06000000    66.52000000    36.22000000
   C     48.31000000    69.25000000    35.84000000
   C     48.29000000    70.75000000    35.54000000
   C     49.55000000    71.22000000    34.84000000
   O     49.67000000    71.05000000    33.60000000
   O     50.44000000    71.80000000    35.50000000
   H     45.95000000    70.13000000    37.66000000
   H     46.26000000    68.96000000    35.88000000
   H     48.54000000    68.79000000    34.88000000
   H     49.11000000    68.94000000    36.52000000
   H     48.06000000    71.26000000    36.48000000
   H     47.43000000    70.79000000    34.88000000
   N     46.38000000    66.65000000    37.63000000
   C     46.48000000    65.29000000    38.11000000
   H     47.25600000    65.23100000    38.87300000
   H     45.52600000    64.98400000    38.53900000
   H     46.73500000    64.62900000    37.28100000
   H     45.76000000    67.27000000    38.15000000
  Ca     52.50000000    71.42000000    34.03000000
   O     51.37000000    74.00000000    33.72000000
   H     52.04000000    74.54000000    33.29000000
   H     50.55000000    74.49000000    33.60000000
   O     52.61000000    69.66000000    35.78000000
   H     52.16000000    69.19000000    36.48000000
   H     53.54000000    69.45000000    35.92000000
   O     51.88000000    71.63000000    31.49000000
   H     52.59000000    71.48000000    30.87000000
   H     51.09000000    71.34000000    31.03000000
   O     54.35000000    73.14000000    32.76000000
   H     55.11000000    72.97000000    32.21000000
   H     54.04000000    74.00000000    32.47000000
   O     53.86000000    72.92000000    35.55000000
   H     53.51000000    73.36000000    36.33000000
   H     54.67000000    73.40000000    35.35000000
   O     51.67000000    68.91000000    33.09000000
   H     52.16000000    68.23000000    32.62000000
   H     50.82000000    68.94000000    32.65000000

Ca 1.00



