%chk=loop1.apoCaM-CA-Ng.Init31.run24.water5.chk
%nprocshared=20
%mem=10GB
%nosave
#b3lyp/svp scf=(tight,noincore,xqc) Test 
#IOP(5/87=12) Density=Current Pop=(MK,readradii) iop(6/33=2) iop(6/42=6)

loop1.apoCaM-CA-Ng.Init31.run24.water5 

   0  1 
   C     75.95000000    66.89000000    -9.40000000
   C     74.98000000    67.39000000   -10.45000000
   O     75.11000000    68.56000000   -10.80000000
   H     76.82800000    67.53500000    -9.38100000
   H     75.46800000    66.90500000    -8.42300000
   H     76.25300000    65.87100000    -9.64100000
   N     74.05000000    66.61000000   -11.00000000
   C     73.20000000    66.96000000   -12.12000000
   C     71.74000000    67.09000000   -11.70000000
   O     71.26000000    66.52000000   -10.72000000
   C     73.43000000    66.03000000   -13.30000000
   C     72.87000000    66.59000000   -14.60000000
   O     72.51000000    67.79000000   -14.65000000
   O     72.90000000    65.84000000   -15.60000000
   H     73.76000000    65.74000000   -10.57000000
   H     73.50000000    67.92000000   -12.54000000
   H     73.00000000    65.04000000   -13.14000000
   H     74.50000000    65.95000000   -13.50000000
   N     70.94000000    67.85000000   -12.45000000
   C     69.51000000    68.04000000   -12.28000000
   C     68.64000000    66.79000000   -12.27000000
   O     67.84000000    66.78000000   -11.33000000
   C     69.08000000    69.10000000   -13.29000000
   C     67.59000000    69.41000000   -13.33000000
   C     67.10000000    70.17000000   -12.10000000
   C     65.65000000    70.64000000   -12.07000000
   N     65.45000000    71.57000000   -10.94000000
   H     71.36000000    68.27000000   -13.27000000
   H     69.38000000    68.46000000   -11.29000000
   H     69.41000000    68.76000000   -14.28000000
   H     69.64000000    70.01000000   -13.07000000
   H     67.00000000    68.50000000   -13.35000000
   H     67.53000000    69.97000000   -14.27000000
   H     67.78000000    71.01000000   -12.01000000
   H     67.29000000    69.54000000   -11.23000000
   H     65.04000000    69.76000000   -11.87000000
   H     65.26000000    71.21000000   -12.91000000
   H     64.46000000    71.69000000   -10.83000000
   H     65.79000000    71.29000000   -10.03000000
   H     65.88000000    72.43000000   -11.25000000
   N     68.77000000    65.69000000   -13.01000000
   C     69.58000000    65.47000000   -14.19000000
   C     70.14000000    64.06000000   -14.05000000
   O     69.53000000    63.15000000   -13.47000000
   C     68.62000000    65.47000000   -15.37000000
   C     69.22000000    64.80000000   -16.60000000
   O     70.26000000    65.24000000   -17.12000000
   O     68.57000000    63.86000000   -17.12000000
   H     68.10000000    64.96000000   -12.82000000
   H     70.35000000    66.20000000   -14.40000000
   H     68.49000000    66.52000000   -15.66000000
   H     67.65000000    65.00000000   -15.20000000
   N     71.27000000    63.70000000   -14.65000000
   C     71.97000000    62.44000000   -14.47000000
   C     73.37000000    62.52000000   -15.08000000
   O     74.17000000    63.41000000   -14.81000000
   H     71.83000000    64.44000000   -15.03000000
   H     71.40000000    61.65000000   -14.95000000
   H     71.98000000    62.24000000   -13.40000000
   N     73.77000000    61.55000000   -15.91000000
   C     75.09000000    61.52000000   -16.51000000
   C     75.45000000    60.05000000   -16.62000000
   O     74.57000000    59.22000000   -16.42000000
   C     75.09000000    62.15000000   -17.89000000
   C     74.29000000    63.44000000   -17.97000000
   O     74.88000000    64.51000000   -17.70000000
   O     73.08000000    63.46000000   -18.29000000
   H     73.21000000    60.72000000   -15.95000000
   H     75.76000000    62.09000000   -15.86000000
   H     74.64000000    61.43000000   -18.57000000
   H     76.07000000    62.30000000   -18.37000000
   N     76.61000000    59.62000000   -17.12000000
   C     77.83000000    60.39000000   -17.03000000
   C     78.24000000    60.81000000   -18.44000000
   O     78.62000000    61.96000000   -18.60000000
   H     76.66000000    58.64000000   -17.35000000
   H     78.54000000    59.76000000   -16.50000000
   H     77.71000000    61.26000000   -16.38000000
   N     78.06000000    59.93000000   -19.43000000
   C     78.65000000    60.00000000   -20.75000000
   C     80.10000000    60.47000000   -20.76000000
   O     80.37000000    61.67000000   -20.84000000
   C     77.80000000    60.79000000   -21.74000000
   C     76.42000000    60.21000000   -22.01000000
   O     78.50000000    60.92000000   -22.96000000
   H     77.46000000    59.16000000   -19.15000000
   H     78.73000000    58.99000000   -21.16000000
   H     77.68000000    61.77000000   -21.28000000
   H     79.10000000    61.67000000   -22.93000000
   H     76.65000000    59.41000000   -22.71000000
   H     75.94000000    59.79000000   -21.12000000
   H     75.80000000    60.99000000   -22.46000000
   N     81.03000000    59.59000000   -20.39000000
   C     82.47000000    59.73000000   -20.45000000
   C     83.00000000    60.10000000   -21.83000000
   O     83.76000000    59.32000000   -22.40000000
   C     83.05000000    60.55000000   -19.30000000
   C     82.65000000    60.09000000   -17.90000000
   C     84.57000000    60.44000000   -19.40000000
   C     82.85000000    58.64000000   -17.48000000
   H     80.68000000    58.65000000   -20.26000000
   H     82.90000000    58.73000000   -20.38000000
   H     82.67000000    61.57000000   -19.40000000
   H     81.61000000    60.40000000   -17.82000000
   H     83.28000000    60.67000000   -17.22000000
   H     84.86000000    60.98000000   -20.30000000
   H     85.18000000    60.89000000   -18.62000000
   H     84.90000000    59.41000000   -19.46000000
   H     82.35000000    57.98000000   -18.19000000
   H     83.93000000    58.48000000   -17.45000000
   H     82.48000000    58.68000000   -16.46000000
   N     82.53000000    61.17000000   -22.47000000
   C     82.98000000    61.79000000   -23.71000000
   C     84.43000000    62.24000000   -23.65000000
   O     84.94000000    62.36000000   -22.54000000
   C     81.96000000    62.87000000   -24.03000000
   C     81.87000000    64.05000000   -23.06000000
   O     80.63000000    62.47000000   -24.31000000
   H     81.90000000    61.73000000   -21.92000000
   H     82.81000000    61.09000000   -24.53000000
   H     82.34000000    63.31000000   -24.95000000
   H     80.23000000    63.18000000   -24.81000000
   H     82.83000000    64.57000000   -23.07000000
   H     81.12000000    64.79000000   -23.33000000
   H     81.64000000    63.68000000   -22.07000000
   N     85.01000000    62.53000000   -24.82000000
   C     86.34000000    63.03000000   -25.09000000
   C     86.40000000    64.53000000   -24.83000000
   O     85.53000000    65.01000000   -24.12000000
   C     86.78000000    62.57000000   -26.47000000
   C     85.90000000    63.16000000   -27.57000000
   O     88.15000000    62.82000000   -26.72000000
   H     84.49000000    62.19000000   -25.62000000
   H     87.03000000    62.58000000   -24.37000000
   H     86.62000000    61.49000000   -26.55000000
   H     88.50000000    62.03000000   -27.14000000
   H     85.44000000    64.11000000   -27.29000000
   H     86.45000000    63.26000000   -28.50000000
   H     85.13000000    62.39000000   -27.66000000
   N     87.44000000    65.24000000   -25.27000000
   C     87.70000000    66.62000000   -24.90000000
   C     86.55000000    67.58000000   -25.18000000
   O     85.90000000    67.56000000   -26.22000000
   C     89.04000000    67.09000000   -25.45000000
   C     89.09000000    67.11000000   -26.98000000
   C     90.48000000    67.38000000   -27.53000000
   C     90.66000000    67.19000000   -29.03000000
   N     92.10000000    67.25000000   -29.33000000
   H     88.09000000    64.75000000   -25.87000000
   H     87.75000000    66.57000000   -23.81000000
   H     89.85000000    66.54000000   -24.98000000
   H     89.13000000    68.11000000   -25.08000000
   H     88.33000000    67.78000000   -27.38000000
   H     88.88000000    66.11000000   -27.35000000
   H     91.12000000    66.62000000   -27.08000000
   H     90.72000000    68.39000000   -27.18000000
   H     90.07000000    67.87000000   -29.65000000
   H     90.21000000    66.21000000   -29.20000000
   H     92.69000000    66.50000000   -29.01000000
   H     92.23000000    67.27000000   -30.33000000
   H     92.48000000    68.14000000   -29.06000000
   N     86.46000000    68.52000000   -24.23000000
   C     85.54000000    69.64000000   -24.29000000
   C     84.15000000    69.19000000   -23.88000000
   O     83.20000000    69.30000000   -24.65000000
   C     86.15000000    70.89000000   -23.66000000
   C     85.25000000    72.11000000   -23.82000000
   C     85.72000000    73.43000000   -23.23000000
   O     85.03000000    73.88000000   -22.29000000
   O     86.77000000    73.97000000   -23.65000000
   H     87.08000000    68.50000000   -23.43000000
   H     85.29000000    69.83000000   -25.33000000
   H     87.09000000    71.04000000   -24.19000000
   H     86.34000000    70.61000000   -22.62000000
   H     84.29000000    71.90000000   -23.37000000
   H     85.09000000    72.16000000   -24.90000000
   N     83.85000000    68.74000000   -22.66000000
   C     84.69000000    68.37000000   -21.53000000
   H     85.58200000    68.99700000   -21.52000000
   H     84.13600000    68.51300000   -20.60200000
   H     84.98300000    67.32400000   -21.62100000
   H     82.86000000    68.54000000   -22.57000000
  Ca     72.38000000    65.98000000   -18.14700000
   O     70.58000000    64.87000000   -20.11700000
   H     70.73000000    64.20000000   -20.77700000
   H     69.64000000    64.82000000   -19.92700000
   O     71.30000000    68.14000000   -16.98700000
   H     71.74000000    68.04000000   -16.14700000
   H     70.80000000    68.96000000   -16.90700000
   O     73.80000000    65.59000000   -20.60700000
   H     74.45000000    65.11000000   -21.12700000
   H     73.16000000    65.89000000   -21.24700000
   O     71.98000000    67.86000000   -20.07700000
   H     72.45000000    68.65000000   -20.35700000
   H     71.63000000    67.49000000   -20.88700000
   O     74.23000000    67.91000000   -18.21700000
   H     74.57000000    68.06000000   -19.09700000
   H     74.10000000    68.79000000   -17.86700000

Ca 1.00



