%chk=loop2.holoCaM-CaMKII.run53.water1.chk
%nprocshared=20
%mem=10GB
%nosave
#b3lyp/svp scf=(tight,noincore,xqc) Test 
#IOP(5/87=12) Density=Current Pop=(MK,readradii) iop(6/33=2) iop(6/42=6)

loop2.holoCaM-CaMKII.run53.water1 

   -2  1 
   C      9.47000000    63.18000000    11.90000000
   C      8.29000000    63.37000000    10.96000000
   O      8.08000000    64.50000000    10.52000000
   H     10.27900000    63.85000000    11.60700000
   H      9.16200000    63.40800000    12.92100000
   H      9.81600000    62.14800000    11.84600000
   N      7.56000000    62.33000000    10.56000000
   C      6.63000000    62.34000000     9.45000000
   C      5.48000000    63.31000000     9.68000000
   O      4.60000000    62.99000000    10.48000000
   C      6.14000000    60.94000000     9.12000000
   C      5.49000000    60.91000000     7.75000000
   O      5.34000000    61.94000000     7.05000000
   O      5.25000000    59.77000000     7.30000000
   H      7.81000000    61.41000000    10.92000000
   H      7.28000000    62.73000000     8.66000000
   H      5.45000000    60.66000000     9.93000000
   H      6.94000000    60.20000000     9.14000000
   N      5.47000000    64.44000000     8.97000000
   C      4.52000000    65.52000000     9.11000000
   C      3.42000000    65.49000000     8.06000000
   O      2.54000000    66.34000000     8.08000000
   C      5.23000000    66.87000000     9.02000000
   H      6.20000000    64.51000000     8.28000000
   H      4.06000000    65.48000000    10.10000000
   H      5.93000000    66.86000000     9.86000000
   H      5.67000000    67.01000000     8.03000000
   H      4.48000000    67.66000000     9.05000000
   N      3.32000000    64.45000000     7.22000000
   C      2.19000000    64.21000000     6.34000000
   C      1.53000000    62.86000000     6.58000000
   O      0.31000000    62.73000000     6.53000000
   C      2.52000000    64.35000000     4.86000000
   C      3.73000000    63.60000000     4.32000000
   O      4.72000000    64.24000000     3.92000000
   O      3.94000000    62.40000000     4.59000000
   H      3.97000000    63.68000000     7.24000000
   H      1.42000000    64.96000000     6.55000000
   H      2.57000000    65.39000000     4.53000000
   H      1.70000000    63.85000000     4.34000000
   N      2.35000000    61.82000000     6.72000000
   C      2.00000000    60.43000000     6.89000000
   C      2.35000000    59.46000000     5.77000000
   O      1.84000000    58.34000000     5.73000000
   H      3.30000000    62.11000000     6.54000000
   H      0.92000000    60.28000000     6.97000000
   H      2.48000000    60.03000000     7.78000000
   N      3.28000000    59.71000000     4.84000000
   C      3.52000000    58.85000000     3.70000000
   C      4.75000000    57.97000000     3.87000000
   O      5.14000000    57.23000000     2.97000000
   C      3.65000000    59.77000000     2.49000000
   C      4.98000000    60.50000000     2.36000000
   N      5.38000000    60.83000000     1.13000000
   O      5.68000000    60.79000000     3.34000000
   H      3.66000000    60.65000000     4.84000000
   H      2.64000000    58.23000000     3.55000000
   H      2.81000000    60.46000000     2.46000000
   H      3.67000000    59.15000000     1.59000000
   H      4.76000000    60.72000000     0.34000000
   H      6.18000000    61.44000000     1.02000000
   N      5.55000000    58.04000000     4.93000000
   C      6.78000000    57.31000000     5.20000000
   C      7.99000000    57.59000000     4.33000000
   O      8.86000000    56.72000000     4.28000000
   H      5.20000000    58.63000000     5.67000000
   H      6.61000000    56.24000000     5.15000000
   H      7.07000000    57.58000000     6.22000000
   N      8.08000000    58.77000000     3.72000000
   C      9.24000000    59.22000000     2.98000000
   C      9.52000000    60.69000000     3.29000000
   O      8.62000000    61.49000000     3.52000000
   C      9.05000000    58.94000000     1.49000000
   C      9.99000000    59.60000000     0.50000000
   O      9.02000000    57.55000000     1.26000000
   H      7.24000000    59.33000000     3.70000000
   H     10.08000000    58.60000000     3.30000000
   H      8.09000000    59.44000000     1.34000000
   H      8.40000000    57.31000000     0.57000000
   H      9.77000000    59.29000000    -0.52000000
   H      9.96000000    60.69000000     0.58000000
   H     11.02000000    59.30000000     0.68000000
   N     10.80000000    61.04000000     3.42000000
   C     11.24000000    62.27000000     4.06000000
   C     11.28000000    63.44000000     3.08000000
   O     11.76000000    63.29000000     1.96000000
   C     12.44000000    61.99000000     4.95000000
   C     12.31000000    60.90000000     6.01000000
   C     13.00000000    63.32000000     5.44000000
   C     13.61000000    60.68000000     6.78000000
   H     11.52000000    60.42000000     3.09000000
   H     10.52000000    62.67000000     4.77000000
   H     13.15000000    61.60000000     4.21000000
   H     12.01000000    59.95000000     5.57000000
   H     11.54000000    61.04000000     6.76000000
   H     13.96000000    63.09000000     5.91000000
   H     13.05000000    64.13000000     4.71000000
   H     12.32000000    63.62000000     6.24000000
   H     13.50000000    59.92000000     7.55000000
   H     14.32000000    60.14000000     6.15000000
   H     13.98000000    61.50000000     7.39000000
   N     10.60000000    64.52000000     3.47000000
   C     10.60000000    65.81000000     2.81000000
   C     11.44000000    66.80000000     3.61000000
   O     11.72000000    66.51000000     4.77000000
   C      9.12000000    66.14000000     2.73000000
   C      8.04000000    65.15000000     2.30000000
   O      7.49000000    64.42000000     3.16000000
   O      7.73000000    65.05000000     1.10000000
   H     10.19000000    64.51000000     4.39000000
   H     10.88000000    65.68000000     1.77000000
   H      8.96000000    66.99000000     2.07000000
   H      8.84000000    66.55000000     3.70000000
   N     11.96000000    67.90000000     3.06000000
   C     12.94000000    68.77000000     3.67000000
   C     12.64000000    69.40000000     5.03000000
   O     13.53000000    69.44000000     5.87000000
   C     13.32000000    69.77000000     2.58000000
   C     14.54000000    70.58000000     2.96000000
   C     14.43000000    71.96000000     3.18000000
   C     15.81000000    69.99000000     3.02000000
   C     15.56000000    72.74000000     3.45000000
   C     16.95000000    70.72000000     3.37000000
   C     16.79000000    72.09000000     3.61000000
   H     11.80000000    68.10000000     2.08000000
   H     13.74000000    68.09000000     3.96000000
   H     12.42000000    70.37000000     2.45000000
   H     13.44000000    69.31000000     1.60000000
   H     13.52000000    72.47000000     2.90000000
   H     16.03000000    68.94000000     2.86000000
   H     15.52000000    73.82000000     3.49000000
   H     17.95000000    70.30000000     3.38000000
   H     17.68000000    72.68000000     3.72000000
   N     11.38000000    69.77000000     5.27000000
   C     11.00000000    70.15000000     6.61000000
   C     11.10000000    69.08000000     7.68000000
   O     11.46000000    69.36000000     8.82000000
   C      9.61000000    70.77000000     6.53000000
   C      9.46000000    71.01000000     5.03000000
   C     10.32000000    69.97000000     4.31000000
   H     11.74000000    70.93000000     6.82000000
   H      8.89000000    69.99000000     6.82000000
   H      9.44000000    71.68000000     7.11000000
   H      8.41000000    70.83000000     4.83000000
   H      9.76000000    72.01000000     4.74000000
   H      9.70000000    69.07000000     4.26000000
   H     10.57000000    70.36000000     3.32000000
   N     10.78000000    67.82000000     7.36000000
   C     11.01000000    66.69000000     8.23000000
   C     12.47000000    66.30000000     8.42000000
   O     12.88000000    65.99000000     9.53000000
   C     10.25000000    65.45000000     7.74000000
   C      8.81000000    65.75000000     7.33000000
   C      8.04000000    64.53000000     6.86000000
   O      6.83000000    64.63000000     6.56000000
   O      8.62000000    63.49000000     6.50000000
   H     10.54000000    67.61000000     6.40000000
   H     10.68000000    66.85000000     9.25000000
   H     10.25000000    64.69000000     8.52000000
   H     10.81000000    65.10000000     6.87000000
   H      8.79000000    66.44000000     6.48000000
   H      8.34000000    66.31000000     8.14000000
   N     13.29000000    66.40000000     7.37000000
   C     14.73000000    66.39000000     7.53000000
   H     15.15800000    67.25300000     7.01900000
   H     14.97900000    66.43600000     8.59000000
   H     15.13800000    65.47500000     7.10000000
   H     12.72000000    66.51000000     6.54000000
  Ca      6.67000000    62.68000000     4.90000000
   O      8.21000000    60.91000000     6.16000000
   H      8.28000000    60.07000000     6.61000000
   H      8.87000000    61.46000000     6.58000000

Ca 1.00



