%chk=loop1.holoCaM-CaMKII.run91.water2.chk
%nprocshared=20
%mem=10GB
%nosave
#b3lyp/svp scf=(tight,noincore,xqc) Test 
#IOP(5/87=12) Density=Current Pop=(MK,readradii) iop(6/33=2) iop(6/42=6)

loop1.holoCaM-CaMKII.run91.water2 

   0  1 
   C     46.08000000    26.08000000    -4.95100000
   C     45.65000000    24.68000000    -5.37100000
   O     44.47000000    24.46000000    -5.67100000
   H     47.00800000    26.34200000    -5.45900000
   H     45.30400000    26.79600000    -5.22100000
   H     46.23800000    26.10400000    -3.87300000
   N     46.56000000    23.71000000    -5.43100000
   C     46.35000000    22.33000000    -5.82100000
   C     45.77000000    21.51000000    -4.68100000
   O     46.39000000    20.52000000    -4.28100000
   C     47.57000000    21.82000000    -6.58100000
   C     47.27000000    20.44000000    -7.14100000
   O     48.08000000    19.49000000    -7.10100000
   O     46.15000000    20.36000000    -7.70100000
   H     47.49000000    23.97000000    -5.13100000
   H     45.61000000    22.40000000    -6.62100000
   H     48.42000000    21.81000000    -5.90100000
   H     47.88000000    22.49000000    -7.38100000
   N     44.60000000    21.89000000    -4.17100000
   C     43.91000000    21.17000000    -3.12100000
   C     43.49000000    19.72000000    -3.36100000
   O     43.43000000    18.93000000    -2.42100000
   C     42.78000000    22.03000000    -2.56100000
   C     43.13000000    23.42000000    -2.03100000
   C     41.97000000    24.11000000    -1.33100000
   C     42.04000000    25.59000000    -0.95100000
   N     42.08000000    26.49000000    -2.10100000
   H     44.15000000    22.70000000    -4.57100000
   H     44.64000000    20.99000000    -2.34100000
   H     42.18000000    21.59000000    -1.76100000
   H     42.05000000    22.07000000    -3.37100000
   H     43.31000000    24.19000000    -2.78100000
   H     43.91000000    23.27000000    -1.28100000
   H     41.88000000    23.45000000    -0.47100000
   H     41.10000000    23.80000000    -1.91100000
   H     42.77000000    25.80000000    -0.16100000
   H     41.10000000    25.84000000    -0.46100000
   H     41.38000000    26.16000000    -2.74100000
   H     41.77000000    27.42000000    -1.86100000
   H     43.01000000    26.55000000    -2.50100000
   N     43.26000000    19.37000000    -4.62100000
   C     42.82000000    18.05000000    -5.04100000
   C     44.02000000    17.17000000    -5.36100000
   O     43.79000000    15.99000000    -5.60100000
   C     41.80000000    18.17000000    -6.17100000
   C     41.94000000    19.21000000    -7.28100000
   O     43.02000000    19.80000000    -7.50100000
   O     41.02000000    19.32000000    -8.12100000
   H     43.52000000    19.91000000    -5.43100000
   H     42.32000000    17.66000000    -4.16100000
   H     40.88000000    18.40000000    -5.63100000
   H     41.58000000    17.21000000    -6.63100000
   N     45.25000000    17.70000000    -5.40100000
   C     46.52000000    17.00000000    -5.45100000
   C     46.87000000    16.36000000    -6.78100000
   O     47.79000000    15.53000000    -6.77100000
   H     45.32000000    18.70000000    -5.29100000
   H     46.54000000    16.26000000    -4.65100000
   H     47.30000000    17.69000000    -5.14100000
   N     46.24000000    16.63000000    -7.93100000
   C     46.60000000    16.11000000    -9.23100000
   C     47.93000000    16.66000000    -9.73100000
   O     48.38000000    16.35000000   -10.83100000
   C     45.46000000    16.52000000   -10.16100000
   C     45.17000000    18.02000000   -10.22100000
   O     46.14000000    18.77000000   -10.46100000
   O     43.99000000    18.39000000   -10.06100000
   H     45.62000000    17.42000000    -7.92100000
   H     46.64000000    15.03000000    -9.32100000
   H     44.55000000    16.01000000    -9.86100000
   H     45.64000000    16.21000000   -11.19100000
   N     48.62000000    17.52000000    -8.97100000
   C     49.90000000    18.13000000    -9.22100000
   C     49.84000000    19.33000000   -10.16100000
   O     50.83000000    19.67000000   -10.79100000
   H     48.10000000    17.97000000    -8.23100000
   H     50.55000000    17.36000000    -9.64100000
   H     50.46000000    18.50000000    -8.35100000
   N     48.71000000    20.00000000   -10.40100000
   C     48.74000000    21.06000000   -11.39100000
   C     47.77000000    22.13000000   -10.93100000
   O     46.86000000    21.92000000   -10.14100000
   C     48.30000000    20.52000000   -12.75100000
   C     49.21000000    19.58000000   -13.53100000
   O     46.98000000    20.01000000   -12.76100000
   H     47.79000000    19.73000000   -10.07100000
   H     49.74000000    21.47000000   -11.50100000
   H     48.39000000    21.46000000   -13.29100000
   H     47.12000000    19.31000000   -12.12100000
   H     48.90000000    19.40000000   -14.56100000
   H     50.08000000    20.24000000   -13.63100000
   H     49.47000000    18.64000000   -13.05100000
   N     47.92000000    23.36000000   -11.43100000
   C     47.09000000    24.50000000   -11.09100000
   C     46.48000000    25.04000000   -12.38100000
   O     47.22000000    25.19000000   -13.35100000
   C     47.89000000    25.62000000   -10.42100000
   C     48.56000000    25.12000000    -9.15100000
   C     47.10000000    26.90000000   -10.19100000
   C     49.67000000    26.01000000    -8.60100000
   H     48.55000000    23.53000000   -12.20100000
   H     46.21000000    24.19000000   -10.53100000
   H     48.68000000    25.96000000   -11.09100000
   H     48.79000000    24.06000000    -9.32100000
   H     47.88000000    25.11000000    -8.30100000
   H     47.66000000    27.68000000    -9.68100000
   H     46.59000000    27.28000000   -11.08100000
   H     46.25000000    26.71000000    -9.53100000
   H     50.56000000    25.92000000    -9.23100000
   H     49.37000000    27.04000000    -8.48100000
   H     49.99000000    25.60000000    -7.64100000
   N     45.16000000    25.15000000   -12.43100000
   C     44.35000000    25.62000000   -13.55100000
   C     44.07000000    27.09000000   -13.31100000
   O     44.20000000    27.62000000   -12.20100000
   C     42.96000000    25.00000000   -13.48100000
   C     43.00000000    23.54000000   -13.90100000
   O     42.32000000    25.07000000   -12.22100000
   H     44.61000000    24.81000000   -11.66100000
   H     44.87000000    25.55000000   -14.50100000
   H     42.33000000    25.46000000   -14.24100000
   H     42.96000000    24.66000000   -11.63100000
   H     43.51000000    23.59000000   -14.87100000
   H     43.52000000    22.97000000   -13.13100000
   H     41.97000000    23.19000000   -14.01100000
   N     43.66000000    27.83000000   -14.34100000
   C     43.19000000    29.20000000   -14.30100000
   C     41.94000000    29.38000000   -13.45100000
   O     41.64000000    30.46000000   -12.94100000
   C     42.90000000    29.70000000   -15.71100000
   C     44.16000000    30.05000000   -16.50100000
   O     42.24000000    28.76000000   -16.53100000
   H     43.65000000    27.36000000   -15.23100000
   H     43.93000000    29.83000000   -13.80100000
   H     42.32000000    30.61000000   -15.59100000
   H     42.08000000    29.26000000   -17.33100000
   H     43.82000000    30.34000000   -17.49100000
   H     44.77000000    30.83000000   -16.03100000
   H     44.80000000    29.17000000   -16.57100000
   N     41.15000000    28.33000000   -13.26100000
   C     40.06000000    28.13000000   -12.32100000
   C     40.58000000    28.29000000   -10.90100000
   O     40.01000000    29.10000000   -10.18100000
   C     39.23000000    26.86000000   -12.47100000
   C     38.10000000    26.67000000   -11.45100000
   C     37.15000000    27.86000000   -11.28100000
   C     36.35000000    28.01000000   -12.57100000
   N     35.35000000    29.08000000   -12.46100000
   H     41.35000000    27.52000000   -13.82100000
   H     39.31000000    28.91000000   -12.46100000
   H     39.91000000    26.02000000   -12.38100000
   H     38.98000000    26.65000000   -13.51100000
   H     38.61000000    26.61000000   -10.49100000
   H     37.52000000    25.77000000   -11.64100000
   H     37.63000000    28.79000000   -11.00100000
   H     36.48000000    27.66000000   -10.45100000
   H     35.83000000    27.08000000   -12.79100000
   H     36.98000000    28.10000000   -13.45100000
   H     34.75000000    28.95000000   -13.27100000
   H     34.76000000    28.98000000   -11.65100000
   H     35.69000000    30.03000000   -12.48100000
   N     41.54000000    27.44000000   -10.52100000
   C     42.15000000    27.59000000    -9.21100000
   C     42.74000000    28.98000000    -8.98100000
   O     42.24000000    29.62000000    -8.05100000
   C     43.25000000    26.53000000    -9.20100000
   C     42.61000000    25.21000000    -8.78100000
   C     43.38000000    23.96000000    -9.16100000
   O     43.75000000    23.12000000    -8.30100000
   O     43.72000000    23.70000000   -10.33100000
   H     41.88000000    26.69000000   -11.10100000
   H     41.37000000    27.39000000    -8.48100000
   H     43.96000000    26.72000000    -8.39100000
   H     43.81000000    26.36000000   -10.12100000
   H     41.59000000    25.20000000    -9.18100000
   H     42.49000000    25.15000000    -7.70100000
   N     43.66000000    29.44000000    -9.83100000
   C     44.26000000    30.75000000    -9.72100000
   H     45.21500000    30.75700000   -10.24600000
   H     43.59700000    31.49200000   -10.16500000
   H     44.42200000    30.98900000    -8.67000000
   H     43.82000000    28.80000000   -10.59100000
  Ca     44.47000000    20.91000000    -9.44100000
   O     44.47000000    20.78000000   -12.21100000
   H     43.87000000    20.08000000   -12.45100000
   H     45.31000000    20.52000000   -12.59100000
   O     41.89000000    20.85000000   -10.18100000
   H     41.23000000    21.52000000   -10.34100000
   H     41.44000000    20.20000000    -9.63100000

Ca 1.00



