%chk=loop3.apoCaM-CA-Ng.Init295.run66.water4.chk
%nprocshared=20
%mem=10GB
%nosave
#b3lyp/svp scf=(tight,noincore,xqc) Test 
#IOP(5/87=12) Density=Current Pop=(MK,readradii) iop(6/33=2) iop(6/42=6)

loop3.apoCaM-CA-Ng.Init295.run66.water4 

   0  1 
   C    115.58000000    74.30000000    34.65000000
   C    116.65000000    73.21000000    34.72000000
   O    117.30000000    72.99000000    35.73000000
   H    114.69300000    73.97200000    35.19200000
   H    115.96300000    75.21500000    35.10100000
   H    115.32000000    74.48900000    33.60800000
   N    116.75000000    72.47000000    33.61000000
   C    117.49000000    71.23000000    33.69000000
   C    118.96000000    71.48000000    33.41000000
   O    119.32000000    72.33000000    32.60000000
   C    117.02000000    70.16000000    32.71000000
   C    117.65000000    68.78000000    32.87000000
   O    117.52000000    67.96000000    31.94000000
   O    118.13000000    68.53000000    34.00000000
   H    116.15000000    72.64000000    32.82000000
   H    117.48000000    70.83000000    34.71000000
   H    117.23000000    70.50000000    31.69000000
   H    115.94000000    70.07000000    32.68000000
   N    119.84000000    70.74000000    34.08000000
   C    121.29000000    70.74000000    33.98000000
   C    121.82000000    70.33000000    32.61000000
   O    122.93000000    70.78000000    32.34000000
   C    121.86000000    69.82000000    35.05000000
   C    121.57000000    68.33000000    34.86000000
   C    122.43000000    67.54000000    35.84000000
   C    122.17000000    66.06000000    35.60000000
   N    122.49000000    65.60000000    34.24000000
   H    119.48000000    69.95000000    34.59000000
   H    121.58000000    71.76000000    34.22000000
   H    121.53000000    70.09000000    36.06000000
   H    122.94000000    69.90000000    35.00000000
   H    121.85000000    68.03000000    33.85000000
   H    120.54000000    68.03000000    35.04000000
   H    122.12000000    67.80000000    36.86000000
   H    123.50000000    67.78000000    35.79000000
   H    121.12000000    65.81000000    35.72000000
   H    122.80000000    65.52000000    36.32000000
   H    122.69000000    64.61000000    34.25000000
   H    121.80000000    65.91000000    33.58000000
   H    123.36000000    66.01000000    33.94000000
   N    121.07000000    69.67000000    31.73000000
   C    121.57000000    69.27000000    30.43000000
   C    120.49000000    69.52000000    29.38000000
   O    120.81000000    69.65000000    28.20000000
   C    122.11000000    67.85000000    30.40000000
   C    121.04000000    66.88000000    30.89000000
   O    120.12000000    66.71000000    30.06000000
   O    121.06000000    66.31000000    32.00000000
   H    120.12000000    69.45000000    32.00000000
   H    122.45000000    69.86000000    30.19000000
   H    122.96000000    67.76000000    31.09000000
   H    122.44000000    67.53000000    29.41000000
   N    119.23000000    69.56000000    29.81000000
   C    118.04000000    69.81000000    29.00000000
   C    117.63000000    68.67000000    28.08000000
   O    116.55000000    68.84000000    27.51000000
   H    119.10000000    69.33000000    30.78000000
   H    118.26000000    70.72000000    28.46000000
   H    117.19000000    70.18000000    29.57000000
   N    118.46000000    67.64000000    27.93000000
   C    117.97000000    66.46000000    27.24000000
   C    117.02000000    65.57000000    28.03000000
   O    117.29000000    65.31000000    29.19000000
   C    119.23000000    65.67000000    26.89000000
   C    118.97000000    64.49000000    25.97000000
   N    119.69000000    64.42000000    24.84000000
   O    118.15000000    63.60000000    26.18000000
   H    119.29000000    67.57000000    28.50000000
   H    117.53000000    66.78000000    26.30000000
   H    119.53000000    65.24000000    27.84000000
   H    120.04000000    66.32000000    26.54000000
   H    120.32000000    65.15000000    24.57000000
   H    119.76000000    63.48000000    24.48000000
   N    115.84000000    65.18000000    27.53000000
   C    114.78000000    64.67000000    28.38000000
   C    115.05000000    63.30000000    28.98000000
   O    114.35000000    62.90000000    29.91000000
   H    115.69000000    65.27000000    26.53000000
   H    113.86000000    64.54000000    27.82000000
   H    114.62000000    65.37000000    29.19000000
   N    115.98000000    62.50000000    28.45000000
   C    116.38000000    61.20000000    28.96000000
   C    116.81000000    61.31000000    30.41000000
   O    117.70000000    62.12000000    30.63000000
   C    117.63000000    60.77000000    28.19000000
   C    117.95000000    59.37000000    28.66000000
   C    118.81000000    59.24000000    29.75000000
   C    117.61000000    58.22000000    27.94000000
   C    119.15000000    57.94000000    30.15000000
   C    117.77000000    56.93000000    28.46000000
   C    118.52000000    56.79000000    29.64000000
   O    118.67000000    55.60000000    30.29000000
   H    116.56000000    62.87000000    27.71000000
   H    115.60000000    60.46000000    28.80000000
   H    118.45000000    61.44000000    28.43000000
   H    117.55000000    60.75000000    27.10000000
   H    119.26000000    60.04000000    30.32000000
   H    117.04000000    58.37000000    27.03000000
   H    119.77000000    57.78000000    31.02000000
   H    117.36000000    56.09000000    27.91000000
   H    118.28000000    54.80000000    29.94000000
   N    116.22000000    60.56000000    31.36000000
   C    116.59000000    60.35000000    32.74000000
   C    118.01000000    59.82000000    32.94000000
   O    118.96000000    60.54000000    32.64000000
   C    116.19000000    61.58000000    33.56000000
   C    116.76000000    61.53000000    34.97000000
   C    114.67000000    61.67000000    33.64000000
   C    116.43000000    62.79000000    35.76000000
   H    115.44000000    60.04000000    30.98000000
   H    115.97000000    59.53000000    33.11000000
   H    116.50000000    62.48000000    33.04000000
   H    117.84000000    61.44000000    34.85000000
   H    116.48000000    60.66000000    35.56000000
   H    114.37000000    60.87000000    34.31000000
   H    114.38000000    62.61000000    34.11000000
   H    114.21000000    61.68000000    32.65000000
   H    117.03000000    62.98000000    36.65000000
   H    116.52000000    63.60000000    35.03000000
   H    115.39000000    62.78000000    36.09000000
   N    118.08000000    58.69000000    33.63000000
   C    119.29000000    58.02000000    34.05000000
   C    119.21000000    56.59000000    34.58000000
   O    120.23000000    55.92000000    34.76000000
   C    120.06000000    58.92000000    35.01000000
   O    119.35000000    59.37000000    36.14000000
   H    117.16000000    58.31000000    33.84000000
   H    119.86000000    57.94000000    33.13000000
   H    120.55000000    59.80000000    34.58000000
   H    120.93000000    58.34000000    35.30000000
   H    119.90000000    59.91000000    36.71000000
   N    118.01000000    56.05000000    34.81000000
   C    117.82000000    54.77000000    35.46000000
   C    118.66000000    54.33000000    36.64000000
   O    118.97000000    53.15000000    36.78000000
   C    117.71000000    53.76000000    34.32000000
   H    117.26000000    56.72000000    34.88000000
   H    116.84000000    54.69000000    35.93000000
   H    117.79000000    52.73000000    34.65000000
   H    116.77000000    53.94000000    33.80000000
   H    118.50000000    53.94000000    33.59000000
   N    119.18000000    55.22000000    37.49000000
   C    118.63000000    56.45000000    38.04000000
   C    117.58000000    56.26000000    39.13000000
   O    117.50000000    55.20000000    39.75000000
   C    119.76000000    57.39000000    38.43000000
   H    119.73000000    54.68000000    38.15000000
   H    118.13000000    56.92000000    37.20000000
   H    120.41000000    57.41000000    37.55000000
   H    119.45000000    58.36000000    38.81000000
   H    120.40000000    56.95000000    39.20000000
   N    116.82000000    57.28000000    39.53000000
   C    116.42000000    58.51000000    38.88000000
   C    114.94000000    58.67000000    38.57000000
   O    114.51000000    59.28000000    37.59000000
   C    117.03000000    59.59000000    39.76000000
   C    117.39000000    60.89000000    39.06000000
   C    118.45000000    61.61000000    39.87000000
   O    119.61000000    61.60000000    39.40000000
   O    118.21000000    62.18000000    40.96000000
   H    116.42000000    57.17000000    40.46000000
   H    116.88000000    58.56000000    37.89000000
   H    117.92000000    59.28000000    40.31000000
   H    116.36000000    59.80000000    40.59000000
   H    116.50000000    61.51000000    38.89000000
   H    117.83000000    60.52000000    38.13000000
   N    114.14000000    57.89000000    39.31000000
   C    112.73000000    57.71000000    39.03000000
   H    112.19500000    58.63200000    39.25500000
   H    112.59700000    57.46100000    37.97700000
   H    112.33700000    56.90200000    39.64700000
   H    114.48000000    57.36000000    40.10000000
  Ca    118.39400000    65.54000000    31.55000000
   O    118.65400000    66.12000000    34.25000000
   H    118.50400000    67.00000000    34.58000000
   H    118.77400000    65.59000000    35.04000000
   O    115.95400000    64.90000000    32.20000000
   H    115.39400000    64.13000000    32.27000000
   H    115.38400000    65.58000000    31.86000000
   O    118.98400000    63.46000000    33.10000000
   H    119.70400000    63.40000000    33.73000000
   H    118.84400000    62.55000000    32.82000000
   O    119.78400000    63.60000000    30.30000000
   H    119.06400000    62.97000000    30.38000000
   H    120.33400000    63.25000000    29.61000000

Ca 1.00



