%chk=loop2.apoCaM-CA-Ng.Init293.run100.water6.chk
%nprocshared=20
%mem=10GB
%nosave
#b3lyp/svp scf=(tight,noincore,xqc) Test 
#IOP(5/87=12) Density=Current Pop=(MK,readradii) iop(6/33=2) iop(6/42=6)

loop2.apoCaM-CA-Ng.Init293.run100.water6 

   -2  1 
   C     58.59000000    98.64000000    16.45000000
   C     57.68000000    99.82000000    16.77000000
   O     57.67000000   100.28000000    17.91000000
   H     59.53100000    98.75100000    16.98800000
   H     58.10500000    97.71300000    16.75600000
   H     58.78600000    98.61200000    15.37800000
   N     56.82000000   100.23000000    15.84000000
   C     55.82000000   101.21000000    16.19000000
   C     54.53000000   100.67000000    16.79000000
   O     53.85000000   101.43000000    17.47000000
   C     55.72000000   102.14000000    14.98000000
   C     57.07000000   102.75000000    14.60000000
   O     57.64000000   102.54000000    13.51000000
   O     57.72000000   103.27000000    15.52000000
   H     56.84000000    99.92000000    14.88000000
   H     56.26000000   101.84000000    16.97000000
   H     55.02000000   102.94000000    15.19000000
   H     55.31000000   101.76000000    14.05000000
   N     54.13000000    99.42000000    16.53000000
   C     52.87000000    98.81000000    16.89000000
   C     52.55000000    98.79000000    18.37000000
   O     51.39000000    98.85000000    18.77000000
   C     51.72000000    99.35000000    16.05000000
   H     54.80000000    98.90000000    15.97000000
   H     53.01000000    97.76000000    16.61000000
   H     50.85000000    98.72000000    16.23000000
   H     51.36000000   100.29000000    16.46000000
   H     51.92000000    99.56000000    15.00000000
   N     53.60000000    98.67000000    19.18000000
   C     53.53000000    98.69000000    20.63000000
   C     53.06000000   100.01000000    21.23000000
   O     52.32000000    99.98000000    22.21000000
   C     52.77000000    97.48000000    21.15000000
   C     53.38000000    96.15000000    20.74000000
   O     54.30000000    95.68000000    21.44000000
   O     52.99000000    95.69000000    19.64000000
   H     54.52000000    98.40000000    18.85000000
   H     54.56000000    98.52000000    20.96000000
   H     51.73000000    97.48000000    20.83000000
   H     52.74000000    97.51000000    22.23000000
   N     53.46000000   101.15000000    20.65000000
   C     53.29000000   102.47000000    21.22000000
   C     54.02000000   102.64000000    22.54000000
   O     55.19000000   102.26000000    22.54000000
   H     54.03000000   101.03000000    19.82000000
   H     52.26000000   102.62000000    21.52000000
   H     53.63000000   103.23000000    20.51000000
   N     53.43000000   103.23000000    23.58000000
   C     53.92000000   103.24000000    24.95000000
   C     55.38000000   103.61000000    25.12000000
   O     56.11000000   102.92000000    25.83000000
   C     53.74000000   101.85000000    25.56000000
   C     53.95000000   101.68000000    27.06000000
   N     53.95000000   100.43000000    27.55000000
   O     54.02000000   102.63000000    27.83000000
   H     52.56000000   103.71000000    23.44000000
   H     53.30000000   103.99000000    25.44000000
   H     54.40000000   101.14000000    25.06000000
   H     52.71000000   101.53000000    25.40000000
   H     53.84000000    99.73000000    26.83000000
   H     53.97000000   100.18000000    28.53000000
   N     55.89000000   104.61000000    24.39000000
   C     57.27000000   105.06000000    24.38000000
   C     58.28000000   104.44000000    23.42000000
   O     59.37000000   104.97000000    23.24000000
   H     55.38000000   105.05000000    23.65000000
   H     57.73000000   104.92000000    25.36000000
   H     57.15000000   106.10000000    24.09000000
   N     57.98000000   103.32000000    22.75000000
   C     58.78000000   102.58000000    21.80000000
   C     59.37000000   101.30000000    22.39000000
   O     58.81000000   100.72000000    23.31000000
   C     58.10000000   102.17000000    20.50000000
   C     57.23000000   103.31000000    19.97000000
   O     59.03000000   101.82000000    19.50000000
   H     57.01000000   103.05000000    22.68000000
   H     59.66000000   103.13000000    21.47000000
   H     57.55000000   101.25000000    20.70000000
   H     58.57000000   101.20000000    18.93000000
   H     56.35000000   103.46000000    20.60000000
   H     57.75000000   104.27000000    20.01000000
   H     56.81000000   103.02000000    19.01000000
   N     60.48000000   100.79000000    21.85000000
   C     61.06000000    99.53000000    22.26000000
   C     60.45000000    98.37000000    21.48000000
   O     59.89000000    98.58000000    20.41000000
   C     62.58000000    99.65000000    22.11000000
   C     62.91000000   100.04000000    20.68000000
   C     63.04000000   100.81000000    22.99000000
   C     64.42000000   100.02000000    20.45000000
   H     60.75000000   101.17000000    20.95000000
   H     60.90000000    99.40000000    23.33000000
   H     63.09000000    98.72000000    22.36000000
   H     62.49000000   101.01000000    20.41000000
   H     62.47000000    99.22000000    20.11000000
   H     64.09000000   100.71000000    23.28000000
   H     62.79000000   101.71000000    22.43000000
   H     62.47000000   100.88000000    23.92000000
   H     64.73000000    98.98000000    20.53000000
   H     64.54000000   100.36000000    19.42000000
   H     65.05000000   100.60000000    21.13000000
   N     60.59000000    97.18000000    22.08000000
   C     59.88000000    95.96000000    21.75000000
   C     59.63000000    95.06000000    22.96000000
   O     60.52000000    94.79000000    23.76000000
   C     60.75000000    95.25000000    20.72000000
   C     60.09000000    94.02000000    20.12000000
   O     58.90000000    94.11000000    19.76000000
   O     60.78000000    92.99000000    19.98000000
   H     61.29000000    97.13000000    22.80000000
   H     58.96000000    96.27000000    21.24000000
   H     61.67000000    95.01000000    21.27000000
   H     61.01000000    95.87000000    19.86000000
   N     58.40000000    94.59000000    23.09000000
   C     57.82000000    93.87000000    24.21000000
   C     56.69000000    94.63000000    24.87000000
   O     55.53000000    94.39000000    24.54000000
   C     57.41000000    92.52000000    23.62000000
   C     56.94000000    91.47000000    24.60000000
   C     55.56000000    91.21000000    24.69000000
   C     57.85000000    90.71000000    25.34000000
   C     55.15000000    90.28000000    25.65000000
   C     57.47000000    89.80000000    26.32000000
   C     56.09000000    89.66000000    26.49000000
   H     57.78000000    94.81000000    22.32000000
   H     58.60000000    93.65000000    24.94000000
   H     58.28000000    92.15000000    23.09000000
   H     56.63000000    92.69000000    22.88000000
   H     54.90000000    91.74000000    24.02000000
   H     58.91000000    90.92000000    25.23000000
   H     54.09000000    90.11000000    25.77000000
   H     58.15000000    89.26000000    26.96000000
   H     55.71000000    89.04000000    27.29000000
   N     56.93000000    95.60000000    25.75000000
   C     58.24000000    96.15000000    26.06000000
   C     59.06000000    95.32000000    27.03000000
   O     58.64000000    95.06000000    28.15000000
   C     57.92000000    97.52000000    26.66000000
   C     56.65000000    97.28000000    27.46000000
   C     55.93000000    96.34000000    26.49000000
   H     58.90000000    96.37000000    25.22000000
   H     58.81000000    97.76000000    27.24000000
   H     57.74000000    98.22000000    25.84000000
   H     56.80000000    96.83000000    28.44000000
   H     56.12000000    98.22000000    27.59000000
   H     55.38000000    95.61000000    27.09000000
   H     55.29000000    96.93000000    25.83000000
   N     60.33000000    95.10000000    26.66000000
   C     61.17000000    94.18000000    27.39000000
   C     62.62000000    94.51000000    27.08000000
   O     62.83000000    94.96000000    25.95000000
   C     60.80000000    92.76000000    26.98000000
   C     61.55000000    91.66000000    27.73000000
   C     61.14000000    90.26000000    27.30000000
   O     61.30000000    89.86000000    26.13000000
   O     60.81000000    89.52000000    28.25000000
   H     60.57000000    95.42000000    25.73000000
   H     60.97000000    94.35000000    28.45000000
   H     61.03000000    92.63000000    25.92000000
   H     59.74000000    92.58000000    27.19000000
   H     61.48000000    91.85000000    28.81000000
   H     62.60000000    91.70000000    27.44000000
   N     63.54000000    94.25000000    28.01000000
   C     64.95000000    94.58000000    27.92000000
   H     65.52100000    93.67700000    27.70200000
   H     65.10300000    95.30700000    27.12300000
   H     65.28600000    95.00200000    28.86700000
   H     63.28000000    93.70000000    28.81000000
  Ca     56.88000000    93.32000000    18.59000000
   O     55.35000000    93.10000000    20.73000000
   H     54.99000000    92.31000000    21.13000000
   H     54.80000000    93.81000000    21.05000000
   O     55.70000000    91.09000000    17.50000000
   H     54.83000000    90.77000000    17.74000000
   H     56.04000000    90.43000000    16.90000000
   O     57.26000000    91.06000000    20.28000000
   H     58.20000000    90.95000000    20.44000000
   H     56.86000000    90.26000000    20.62000000
   O     54.57000000    94.23000000    17.86000000
   H     54.04000000    94.54000000    17.13000000
   H     54.35000000    94.82000000    18.59000000
   O     59.36000000    91.93000000    18.11000000
   H     59.90000000    91.85000000    17.32000000
   H     59.94000000    92.33000000    18.76000000
   O     56.41000000    95.76000000    19.60000000
   H     55.86000000    95.71000000    20.38000000
   H     56.93000000    96.55000000    19.73000000

Ca 1.00



