%chk=loop1.apoCaM-CA-Ng.Init295.run44.water6.chk
%nprocshared=20
%mem=10GB
%nosave
#b3lyp/svp scf=(tight,noincore,xqc) Test 
#IOP(5/87=12) Density=Current Pop=(MK,readradii) iop(6/33=2) iop(6/42=6)

loop1.apoCaM-CA-Ng.Init295.run44.water6 

   0  1 
   C     80.03000000    64.48000000    32.80000000
   C     80.18000000    64.57000000    31.29000000
   O     79.46000000    64.02000000    30.46000000
   H     78.97300000    64.40900000    33.05600000
   H     80.55200000    63.59500000    33.16500000
   H     80.45600000    65.37100000    33.26200000
   N     81.28000000    65.15000000    30.81000000
   C     81.65000000    65.32000000    29.42000000
   C     80.52000000    65.82000000    28.54000000
   O     80.09000000    65.12000000    27.62000000
   C     82.42000000    64.15000000    28.81000000
   C     83.07000000    64.49000000    27.48000000
   O     83.59000000    63.56000000    26.82000000
   O     83.04000000    65.65000000    27.03000000
   H     81.95000000    65.37000000    31.54000000
   H     82.45000000    66.07000000    29.38000000
   H     81.65000000    63.38000000    28.84000000
   H     83.29000000    63.86000000    29.41000000
   N     80.00000000    67.01000000    28.84000000
   C     78.77000000    67.52000000    28.26000000
   C     78.95000000    67.73000000    26.76000000
   O     78.16000000    67.31000000    25.92000000
   C     78.35000000    68.74000000    29.07000000
   C     77.24000000    69.60000000    28.47000000
   C     76.89000000    70.82000000    29.30000000
   C     77.95000000    71.89000000    29.04000000
   N     77.83000000    72.56000000    27.74000000
   H     80.45000000    67.54000000    29.57000000
   H     77.91000000    66.86000000    28.37000000
   H     79.19000000    69.42000000    29.24000000
   H     78.15000000    68.40000000    30.09000000
   H     76.33000000    69.01000000    28.40000000
   H     77.47000000    69.82000000    27.42000000
   H     76.75000000    70.43000000    30.31000000
   H     75.91000000    71.19000000    28.98000000
   H     78.91000000    71.40000000    29.21000000
   H     77.80000000    72.72000000    29.74000000
   H     76.98000000    72.29000000    27.26000000
   H     77.83000000    73.57000000    27.71000000
   H     78.64000000    72.35000000    27.17000000
   N     80.12000000    68.29000000    26.45000000
   C     80.54000000    68.65000000    25.11000000
   C     81.26000000    67.52000000    24.38000000
   O     81.65000000    67.70000000    23.22000000
   C     81.21000000    70.02000000    25.12000000
   C     80.31000000    70.97000000    25.91000000
   O     79.24000000    71.38000000    25.41000000
   O     80.66000000    71.41000000    27.02000000
   H     80.77000000    68.59000000    27.16000000
   H     79.62000000    68.70000000    24.53000000
   H     81.37000000    70.39000000    24.11000000
   H     82.20000000    69.96000000    25.55000000
   N     81.40000000    66.30000000    24.88000000
   C     81.94000000    65.17000000    24.15000000
   C     83.43000000    65.22000000    23.82000000
   O     83.76000000    64.70000000    22.75000000
   H     81.06000000    66.19000000    25.83000000
   H     81.54000000    65.03000000    23.15000000
   H     81.82000000    64.23000000    24.69000000
   N     84.22000000    66.04000000    24.51000000
   C     85.65000000    66.22000000    24.32000000
   C     86.50000000    66.28000000    25.58000000
   O     87.72000000    66.43000000    25.56000000
   C     85.89000000    67.32000000    23.29000000
   C     85.06000000    68.56000000    23.59000000
   O     85.57000000    69.40000000    24.37000000
   O     84.17000000    68.95000000    22.81000000
   H     83.79000000    66.33000000    25.37000000
   H     86.07000000    65.34000000    23.83000000
   H     85.64000000    66.88000000    22.32000000
   H     86.96000000    67.49000000    23.17000000
   N     85.85000000    66.20000000    26.74000000
   C     86.41000000    66.31000000    28.07000000
   C     87.08000000    65.08000000    28.66000000
   O     87.26000000    64.06000000    27.99000000
   H     84.85000000    66.11000000    26.67000000
   H     85.54000000    66.55000000    28.68000000
   H     86.96000000    67.26000000    28.11000000
   N     87.33000000    65.21000000    29.96000000
   C     87.83000000    64.22000000    30.90000000
   C     89.34000000    64.30000000    31.07000000
   O     89.96000000    65.34000000    30.86000000
   C     87.06000000    64.31000000    32.22000000
   C     87.57000000    65.42000000    33.13000000
   O     85.72000000    64.50000000    31.84000000
   H     87.09000000    66.10000000    30.36000000
   H     87.54000000    63.29000000    30.41000000
   H     87.23000000    63.36000000    32.74000000
   H     85.34000000    63.68000000    31.51000000
   H     86.98000000    65.66000000    34.01000000
   H     88.56000000    65.12000000    33.49000000
   H     87.66000000    66.36000000    32.60000000
   N     89.92000000    63.15000000    31.41000000
   C     91.33000000    62.93000000    31.71000000
   C     91.84000000    61.57000000    31.25000000
   O     93.01000000    61.52000000    30.89000000
   C     91.48000000    63.08000000    33.22000000
   C     92.91000000    63.02000000    33.77000000
   C     90.77000000    61.97000000    33.99000000
   C     93.89000000    64.04000000    33.19000000
   H     89.32000000    62.34000000    31.43000000
   H     91.91000000    63.72000000    31.24000000
   H     91.08000000    64.03000000    33.55000000
   H     93.28000000    62.02000000    33.55000000
   H     92.72000000    63.24000000    34.82000000
   H     89.73000000    61.90000000    33.68000000
   H     91.37000000    61.09000000    33.76000000
   H     90.90000000    62.18000000    35.05000000
   H     93.92000000    64.05000000    32.10000000
   H     93.69000000    65.09000000    33.40000000
   H     94.85000000    63.60000000    33.46000000
   N     91.01000000    60.53000000    31.20000000
   C     91.30000000    59.17000000    30.77000000
   C     91.02000000    58.21000000    31.92000000
   O     89.89000000    58.23000000    32.41000000
   C     90.64000000    58.84000000    29.44000000
   C     91.37000000    59.68000000    28.40000000
   O     90.87000000    57.52000000    29.01000000
   H     90.13000000    60.54000000    31.70000000
   H     92.36000000    59.20000000    30.56000000
   H     89.55000000    58.93000000    29.41000000
   H     90.14000000    57.33000000    28.41000000
   H     90.95000000    59.49000000    27.41000000
   H     91.14000000    60.74000000    28.55000000
   H     92.45000000    59.52000000    28.36000000
   N     92.04000000    57.47000000    32.35000000
   C     92.04000000    56.46000000    33.39000000
   C     92.04000000    56.90000000    34.84000000
   O     91.54000000    56.19000000    35.71000000
   C     93.17000000    55.46000000    33.20000000
   C     94.62000000    55.86000000    33.44000000
   O     93.18000000    54.96000000    31.88000000
   H     92.82000000    57.39000000    31.70000000
   H     91.13000000    55.89000000    33.20000000
   H     92.88000000    54.72000000    33.95000000
   H     94.00000000    54.52000000    31.67000000
   H     94.76000000    56.62000000    34.21000000
   H     95.15000000    54.94000000    33.70000000
   H     95.03000000    56.24000000    32.50000000
   N     92.64000000    58.07000000    35.08000000
   C     92.74000000    58.66000000    36.40000000
   C     91.45000000    59.29000000    36.90000000
   O     90.58000000    59.66000000    36.11000000
   C     93.69000000    59.84000000    36.27000000
   C     95.19000000    59.58000000    36.13000000
   C     96.11000000    60.80000000    36.16000000
   C     97.62000000    60.62000000    36.20000000
   N     98.32000000    61.90000000    36.39000000
   H     93.02000000    58.57000000    34.29000000
   H     93.03000000    57.96000000    37.18000000
   H     93.60000000    60.46000000    37.16000000
   H     93.38000000    60.54000000    35.49000000
   H     95.43000000    59.11000000    35.18000000
   H     95.51000000    58.79000000    36.80000000
   H     95.79000000    61.46000000    36.96000000
   H     95.87000000    61.42000000    35.29000000
   H     98.09000000    60.16000000    35.33000000
   H     97.85000000    60.00000000    37.06000000
   H     98.06000000    62.55000000    35.66000000
   H     98.13000000    62.30000000    37.31000000
   H     99.31000000    61.72000000    36.31000000
   N     91.21000000    59.43000000    38.21000000
   C     90.08000000    60.18000000    38.71000000
   C     89.37000000    59.33000000    39.75000000
   O     89.93000000    58.79000000    40.70000000
   C     90.57000000    61.52000000    39.27000000
   C     90.89000000    62.51000000    38.16000000
   C     91.41000000    63.83000000    38.73000000
   O     92.31000000    63.78000000    39.59000000
   O     90.86000000    64.91000000    38.42000000
   H     91.95000000    59.21000000    38.86000000
   H     89.36000000    60.43000000    37.93000000
   H     91.41000000    61.24000000    39.90000000
   H     89.89000000    62.03000000    39.96000000
   H     90.01000000    62.69000000    37.54000000
   H     91.72000000    62.17000000    37.53000000
   N     88.03000000    59.25000000    39.80000000
   C     87.16000000    59.45000000    38.66000000
   H     86.27600000    60.00700000    38.97100000
   H     87.69100000    60.01200000    37.89100000
   H     86.85700000    58.48300000    38.26000000
   H     87.60000000    58.79000000    40.58000000
  Ca     82.31000000    68.67000000    20.99000000
   O     79.91000000    67.71000000    20.37000000
   H     79.38000000    67.92000000    21.13000000
   H     79.27000000    67.49000000    19.69000000
   O     82.23000000    68.29000000    18.36000000
   H     82.80000000    68.73000000    17.73000000
   H     82.10000000    67.42000000    18.00000000
   O     82.49000000    65.99000000    20.67000000
   H     81.98000000    65.37000000    20.16000000
   H     82.97000000    65.45000000    21.30000000
   O     84.93000000    68.07000000    19.78000000
   H     85.03000000    67.13000000    19.61000000
   H     85.42000000    68.49000000    19.07000000
   O     83.77000000    70.80000000    20.19000000
   H     84.21000000    71.11000000    19.40000000
   H     83.85000000    71.52000000    20.82000000
   O     80.61000000    70.90000000    20.77000000
   H     79.76000000    71.16000000    21.13000000
   H     80.60000000    71.22000000    19.87000000

Ca 1.00



