%chk=loop1.holoCaM.run31.water2.chk
%nprocshared=20
%mem=10GB
%nosave
#b3lyp/svp scf=(tight,noincore,xqc) Test 
#IOP(5/87=12) Density=Current Pop=(MK,readradii) iop(6/33=2) iop(6/42=6)

loop1.holoCaM.run31.water2 

   0  1 
   C     58.50000000    79.60000000   103.43000000
   C     58.56000000    80.13000000   104.85000000
   O     57.54000000    80.23000000   105.54000000
   H     58.29500000    80.42200000   102.74400000
   H     59.45500000    79.14200000   103.17200000
   H     57.70700000    78.85700000   103.35200000
   N     59.75000000    80.44000000   105.37000000
   C     60.02000000    81.39000000   106.43000000
   C     59.58000000    82.77000000   105.98000000
   O     60.10000000    83.33000000   105.02000000
   C     61.53000000    81.50000000   106.67000000
   C     61.96000000    82.09000000   108.00000000
   O     63.18000000    82.27000000   108.17000000
   O     61.16000000    82.44000000   108.90000000
   H     60.54000000    80.12000000   104.84000000
   H     59.51000000    81.06000000   107.34000000
   H     61.90000000    82.13000000   105.86000000
   H     61.92000000    80.53000000   106.39000000
   N     58.59000000    83.25000000   106.74000000
   C     57.96000000    84.52000000   106.42000000
   C     58.43000000    85.68000000   107.27000000
   O     58.60000000    86.75000000   106.68000000
   C     56.44000000    84.38000000   106.43000000
   C     55.75000000    83.64000000   105.28000000
   C     55.70000000    84.44000000   103.98000000
   C     54.89000000    83.74000000   102.89000000
   N     55.49000000    82.44000000   102.56000000
   H     58.15000000    82.72000000   107.47000000
   H     58.20000000    84.83000000   105.41000000
   H     56.06000000    85.41000000   106.42000000
   H     56.10000000    83.99000000   107.39000000
   H     54.70000000    83.46000000   105.51000000
   H     56.23000000    82.68000000   105.11000000
   H     56.71000000    84.57000000   103.59000000
   H     55.38000000    85.46000000   104.18000000
   H     54.94000000    84.41000000   102.03000000
   H     53.86000000    83.67000000   103.22000000
   H     55.20000000    82.07000000   101.67000000
   H     56.49000000    82.49000000   102.44000000
   H     55.18000000    81.71000000   103.20000000
   N     58.68000000    85.49000000   108.57000000
   C     59.12000000    86.54000000   109.46000000
   C     60.64000000    86.62000000   109.52000000
   O     61.17000000    87.66000000   109.92000000
   C     58.56000000    86.41000000   110.88000000
   C     58.67000000    85.01000000   111.47000000
   O     59.04000000    84.00000000   110.83000000
   O     58.35000000    84.91000000   112.67000000
   H     58.62000000    84.52000000   108.86000000
   H     58.77000000    87.50000000   109.10000000
   H     57.50000000    86.46000000   110.64000000
   H     58.90000000    87.20000000   111.55000000
   N     61.32000000    85.63000000   108.94000000
   C     62.75000000    85.72000000   108.67000000
   C     63.61000000    85.47000000   109.90000000
   O     64.70000000    86.01000000   110.02000000
   H     60.91000000    84.77000000   108.63000000
   H     62.95000000    86.73000000   108.33000000
   H     63.04000000    84.96000000   107.95000000
   N     63.15000000    84.62000000   110.83000000
   C     63.92000000    84.10000000   111.94000000
   C     64.98000000    83.07000000   111.56000000
   O     65.91000000    82.72000000   112.29000000
   C     63.10000000    83.66000000   113.15000000
   C     62.02000000    82.68000000   112.72000000
   O     60.97000000    82.56000000   113.40000000
   O     62.24000000    81.91000000   111.76000000
   H     62.31000000    84.10000000   110.65000000
   H     64.54000000    84.95000000   112.25000000
   H     62.59000000    84.53000000   113.56000000
   H     63.78000000    83.17000000   113.84000000
   N     64.91000000    82.63000000   110.30000000
   C     65.72000000    81.60000000   109.69000000
   C     65.26000000    80.17000000   109.94000000
   O     66.04000000    79.23000000   109.91000000
   H     64.16000000    82.98000000   109.72000000
   H     66.66000000    81.56000000   110.23000000
   H     65.98000000    81.90000000   108.67000000
   N     63.99000000    79.99000000   110.30000000
   C     63.39000000    78.72000000   110.68000000
   C     61.93000000    78.60000000   110.27000000
   O     61.39000000    79.63000000   109.88000000
   C     63.44000000    78.52000000   112.19000000
   C     64.88000000    78.69000000   112.68000000
   O     62.71000000    79.44000000   112.96000000
   H     63.47000000    80.82000000   110.54000000
   H     63.79000000    77.84000000   110.18000000
   H     63.21000000    77.47000000   112.38000000
   H     62.74000000    80.28000000   112.49000000
   H     64.97000000    78.23000000   113.66000000
   H     65.48000000    78.06000000   112.02000000
   H     65.10000000    79.75000000   112.85000000
   N     61.24000000    77.46000000   110.40000000
   C     59.86000000    77.24000000   110.01000000
   C     59.12000000    76.82000000   111.27000000
   O     59.46000000    75.84000000   111.94000000
   C     59.74000000    76.44000000   108.72000000
   C     60.08000000    77.19000000   107.43000000
   C     58.36000000    75.83000000   108.52000000
   C     60.29000000    76.38000000   106.15000000
   H     61.70000000    76.65000000   110.78000000
   H     59.36000000    78.18000000   109.77000000
   H     60.50000000    75.66000000   108.75000000
   H     61.04000000    77.70000000   107.58000000
   H     59.32000000    77.94000000   107.20000000
   H     58.23000000    75.33000000   107.56000000
   H     58.13000000    75.14000000   109.33000000
   H     57.65000000    76.64000000   108.68000000
   H     60.56000000    76.93000000   105.25000000
   H     60.85000000    75.46000000   106.34000000
   H     59.34000000    75.92000000   105.85000000
   N     58.04000000    77.55000000   111.55000000
   C     57.11000000    77.31000000   112.63000000
   C     55.82000000    76.66000000   112.14000000
   O     55.58000000    76.50000000   110.95000000
   C     56.82000000    78.55000000   113.48000000
   C     55.75000000    79.48000000   112.90000000
   O     56.37000000    78.22000000   114.77000000
   H     57.94000000    78.34000000   110.92000000
   H     57.52000000    76.60000000   113.34000000
   H     57.77000000    79.08000000   113.59000000
   H     57.00000000    78.68000000   115.34000000
   H     55.49000000    80.28000000   113.59000000
   H     56.10000000    79.95000000   111.99000000
   H     54.79000000    78.97000000   112.79000000
   N     55.01000000    76.21000000   113.10000000
   C     53.86000000    75.38000000   112.79000000
   C     52.96000000    76.11000000   111.81000000
   O     52.59000000    75.50000000   110.81000000
   C     53.13000000    75.00000000   114.07000000
   C     51.96000000    74.13000000   113.63000000
   O     53.94000000    74.23000000   114.93000000
   H     55.17000000    76.46000000   114.06000000
   H     54.19000000    74.44000000   112.35000000
   H     52.88000000    75.89000000   114.64000000
   H     54.70000000    74.80000000   115.09000000
   H     51.30000000    74.83000000   113.13000000
   H     52.42000000    73.37000000   112.99000000
   H     51.50000000    73.60000000   114.47000000
   N     52.55000000    77.36000000   112.07000000
   C     51.76000000    78.19000000   111.18000000
   C     52.37000000    78.32000000   109.79000000
   O     51.66000000    78.15000000   108.80000000
   C     51.58000000    79.54000000   111.87000000
   C     50.56000000    80.48000000   111.23000000
   C     49.17000000    79.85000000   111.16000000
   C     48.07000000    80.91000000   111.27000000
   N     46.73000000    80.32000000   111.08000000
   H     52.79000000    77.72000000   112.98000000
   H     50.79000000    77.73000000   111.00000000
   H     52.57000000    80.00000000   111.86000000
   H     51.36000000    79.30000000   112.91000000
   H     50.84000000    80.84000000   110.24000000
   H     50.47000000    81.33000000   111.90000000
   H     49.04000000    79.18000000   112.01000000
   H     49.03000000    79.32000000   110.22000000
   H     48.17000000    81.60000000   110.44000000
   H     48.11000000    81.50000000   112.18000000
   H     46.00000000    81.01000000   111.01000000
   H     46.63000000    79.99000000   110.13000000
   H     46.52000000    79.56000000   111.71000000
   N     53.69000000    78.42000000   109.67000000
   C     54.39000000    78.41000000   108.39000000
   C     54.44000000    77.10000000   107.61000000
   O     54.10000000    77.03000000   106.43000000
   C     55.83000000    78.88000000   108.47000000
   C     55.96000000    80.34000000   108.91000000
   C     57.38000000    80.76000000   109.26000000
   O     58.13000000    80.04000000   109.94000000
   O     57.76000000    81.94000000   109.13000000
   H     54.20000000    78.41000000   110.54000000
   H     53.80000000    79.02000000   107.72000000
   H     56.21000000    78.69000000   107.46000000
   H     56.45000000    78.27000000   109.13000000
   H     55.39000000    80.39000000   109.84000000
   H     55.56000000    80.98000000   108.12000000
   N     54.53000000    75.98000000   108.33000000
   C     54.69000000    74.69000000   107.69000000
   H     55.69600000    74.31400000   107.87700000
   H     53.96000000    73.99000000   108.09600000
   H     54.53600000    74.79500000   106.61600000
   H     54.68000000    76.10000000   109.32000000
  Ca     59.88000000    81.53000000   110.90600000
   O     60.00000000    79.61000000   112.73600000
   H     59.61000000    79.76000000   113.59600000
   H     60.88000000    79.29000000   112.92600000
   O     58.19000000    82.06000000   112.97600000
   H     58.36000000    82.98000000   113.14600000
   H     57.25000000    82.01000000   112.79600000

Ca 1.00



