%chk=loop2.holoCaM-CaMKII.run20.water2.chk
%nprocshared=20
%mem=10GB
%nosave
#b3lyp/svp scf=(tight,noincore,xqc) Test 
#IOP(5/87=12) Density=Current Pop=(MK,readradii) iop(6/33=2) iop(6/42=6)

loop2.holoCaM-CaMKII.run20.water2 

   -2  1 
   C     84.83000000    63.80000000     5.39000000
   C     85.75000000    63.14000000     4.38000000
   O     86.66000000    63.82000000     3.90000000
   H     83.86800000    63.28700000     5.39400000
   H     85.27700000    63.74100000     6.38200000
   H     84.68200000    64.84500000     5.11900000
   N     85.50000000    61.88000000     4.01000000
   C     86.41000000    61.12000000     3.18000000
   C     86.53000000    61.78000000     1.81000000
   O     85.63000000    62.38000000     1.22000000
   C     85.81000000    59.72000000     3.02000000
   C     86.79000000    58.77000000     2.33000000
   O     88.00000000    59.04000000     2.26000000
   O     86.44000000    57.63000000     1.97000000
   H     84.67000000    61.38000000     4.30000000
   H     87.42000000    61.04000000     3.58000000
   H     84.84000000    59.82000000     2.54000000
   H     85.66000000    59.30000000     4.01000000
   N     87.74000000    61.72000000     1.24000000
   C     87.97000000    62.03000000    -0.16000000
   C     88.55000000    60.89000000    -0.99000000
   O     88.79000000    61.10000000    -2.18000000
   C     88.97000000    63.18000000    -0.19000000
   H     88.41000000    61.24000000     1.82000000
   H     87.04000000    62.33000000    -0.65000000
   H     88.64000000    63.94000000     0.52000000
   H     90.00000000    62.94000000     0.07000000
   H     88.88000000    63.62000000    -1.18000000
   N     88.81000000    59.70000000    -0.46000000
   C     89.51000000    58.68000000    -1.21000000
   C     89.14000000    57.20000000    -1.14000000
   O     89.54000000    56.47000000    -2.04000000
   C     90.99000000    58.74000000    -0.85000000
   C     91.37000000    58.80000000     0.63000000
   O     90.89000000    57.91000000     1.36000000
   O     92.12000000    59.68000000     1.10000000
   H     88.51000000    59.52000000     0.49000000
   H     89.29000000    58.86000000    -2.26000000
   H     91.41000000    59.65000000    -1.29000000
   H     91.54000000    57.91000000    -1.29000000
   N     88.41000000    56.79000000    -0.10000000
   C     87.87000000    55.45000000    -0.02000000
   C     88.87000000    54.48000000     0.60000000
   O     88.49000000    53.31000000     0.61000000
   H     88.11000000    57.49000000     0.57000000
   H     87.60000000    55.08000000    -1.01000000
   H     87.01000000    55.43000000     0.64000000
   N     90.06000000    54.87000000     1.07000000
   C     90.94000000    54.02000000     1.86000000
   C     90.41000000    53.43000000     3.16000000
   O     91.05000000    52.49000000     3.63000000
   C     92.28000000    54.68000000     2.14000000
   C     92.26000000    55.94000000     2.99000000
   N     93.37000000    56.68000000     2.97000000
   O     91.32000000    56.25000000     3.71000000
   H     90.15000000    55.87000000     1.11000000
   H     91.16000000    53.12000000     1.27000000
   H     92.75000000    54.89000000     1.18000000
   H     93.01000000    54.02000000     2.62000000
   H     93.92000000    56.50000000     2.14000000
   H     93.27000000    57.52000000     3.53000000
   N     89.32000000    53.96000000     3.72000000
   C     88.64000000    53.44000000     4.89000000
   C     89.11000000    53.91000000     6.26000000
   O     88.64000000    53.36000000     7.26000000
   H     89.00000000    54.80000000     3.27000000
   H     88.75000000    52.36000000     4.84000000
   H     87.59000000    53.66000000     4.74000000
   N     89.98000000    54.92000000     6.30000000
   C     90.64000000    55.63000000     7.38000000
   C     90.54000000    57.14000000     7.30000000
   O     90.42000000    57.69000000     6.20000000
   C     92.11000000    55.23000000     7.53000000
   C     92.46000000    53.76000000     7.69000000
   O     92.93000000    55.72000000     6.49000000
   H     90.27000000    55.32000000     5.42000000
   H     90.18000000    55.25000000     8.30000000
   H     92.38000000    55.59000000     8.52000000
   H     92.49000000    56.48000000     6.11000000
   H     92.25000000    53.27000000     6.74000000
   H     93.54000000    53.66000000     7.81000000
   H     91.95000000    53.40000000     8.59000000
   N     90.57000000    57.88000000     8.41000000
   C     90.82000000    59.30000000     8.38000000
   C     92.27000000    59.63000000     8.05000000
   O     93.14000000    59.16000000     8.77000000
   C     90.47000000    59.92000000     9.73000000
   C     89.03000000    59.66000000    10.17000000
   C     90.61000000    61.43000000     9.57000000
   C     88.93000000    59.73000000    11.69000000
   H     90.64000000    57.38000000     9.29000000
   H     90.27000000    59.80000000     7.57000000
   H     91.21000000    59.68000000    10.49000000
   H     88.70000000    58.65000000     9.92000000
   H     88.43000000    60.47000000     9.77000000
   H     90.18000000    61.72000000     8.61000000
   H     90.12000000    61.91000000    10.42000000
   H     91.64000000    61.77000000     9.41000000
   H     87.91000000    59.64000000    12.04000000
   H     89.31000000    58.84000000    12.19000000
   H     89.46000000    60.59000000    12.10000000
   N     92.52000000    60.49000000     7.07000000
   C     93.81000000    61.09000000     6.80000000
   C     93.90000000    62.53000000     7.30000000
   O     92.84000000    63.12000000     7.51000000
   C     94.05000000    61.03000000     5.29000000
   C     93.76000000    59.68000000     4.65000000
   O     92.62000000    59.19000000     4.51000000
   O     94.74000000    59.14000000     4.08000000
   H     91.79000000    60.59000000     6.38000000
   H     94.60000000    60.51000000     7.27000000
   H     95.11000000    61.23000000     5.13000000
   H     93.45000000    61.76000000     4.75000000
   N     95.08000000    63.14000000     7.43000000
   C     95.29000000    64.44000000     8.04000000
   C     94.51000000    65.60000000     7.46000000
   O     93.73000000    66.19000000     8.20000000
   C     96.76000000    64.82000000     8.21000000
   C     96.91000000    65.88000000     9.27000000
   C     97.23000000    67.19000000     8.90000000
   C     96.54000000    65.75000000    10.62000000
   C     97.39000000    68.25000000     9.80000000
   C     96.73000000    66.76000000    11.56000000
   C     97.16000000    68.03000000    11.16000000
   H     95.88000000    62.60000000     7.15000000
   H     94.88000000    64.36000000     9.05000000
   H     97.22000000    65.12000000     7.27000000
   H     97.26000000    63.89000000     8.50000000
   H     97.40000000    67.46000000     7.86000000
   H     96.19000000    64.79000000    10.96000000
   H     97.74000000    69.20000000     9.42000000
   H     96.61000000    66.53000000    12.61000000
   H     97.42000000    68.81000000    11.87000000
   N     94.49000000    65.97000000     6.17000000
   C     93.56000000    66.94000000     5.62000000
   C     92.10000000    66.69000000     5.97000000
   O     91.31000000    67.64000000     6.00000000
   C     93.83000000    67.03000000     4.12000000
   C     95.30000000    66.65000000     4.06000000
   C     95.19000000    65.46000000     5.02000000
   H     93.89000000    67.86000000     6.09000000
   H     93.15000000    66.28000000     3.70000000
   H     93.61000000    68.03000000     3.72000000
   H     95.57000000    66.21000000     3.10000000
   H     95.92000000    67.41000000     4.54000000
   H     94.70000000    64.57000000     4.63000000
   H     96.19000000    65.14000000     5.31000000
   N     91.70000000    65.43000000     6.11000000
   C     90.38000000    65.05000000     6.58000000
   C     90.12000000    65.29000000     8.06000000
   O     89.08000000    65.86000000     8.40000000
   C     90.04000000    63.64000000     6.10000000
   C     90.38000000    63.28000000     4.66000000
   C     90.15000000    61.79000000     4.44000000
   O     90.10000000    61.31000000     3.28000000
   O     90.28000000    60.97000000     5.37000000
   H     92.30000000    64.63000000     6.00000000
   H     89.73000000    65.69000000     5.98000000
   H     88.99000000    63.39000000     6.22000000
   H     90.52000000    62.94000000     6.78000000
   H     91.41000000    63.53000000     4.41000000
   H     89.79000000    63.91000000     3.98000000
   N     91.04000000    64.90000000     8.94000000
   C     90.96000000    65.16000000    10.37000000
   H     89.93700000    65.42800000    10.63300000
   H     91.25300000    64.26600000    10.91900000
   H     91.62800000    65.98100000    10.62800000
   H     91.88000000    64.48000000     8.57000000
  Ca     90.30000000    58.77000000     3.70000000
   O     88.11000000    59.25000000     5.49000000
   H     88.77000000    59.73000000     5.99000000
   H     87.28000000    59.50000000     5.89000000
   O     88.54000000    56.73000000     3.66000000
   H     87.92000000    57.06000000     3.01000000
   H     88.04000000    56.08000000     4.16000000

Ca 1.00



