%chk=loop1.apoCaM-CA-Ng.Init295.run51.water6.chk
%nprocshared=20
%mem=10GB
%nosave
#b3lyp/svp scf=(tight,noincore,xqc) Test 
#IOP(5/87=12) Density=Current Pop=(MK,readradii) iop(6/33=2) iop(6/42=6)

loop1.apoCaM-CA-Ng.Init295.run51.water6 

   0  1 
   C     87.94000000    84.75000000    38.03000000
   C     88.26000000    85.94000000    37.14000000
   O     87.96000000    87.05000000    37.59000000
   H     86.93200000    84.39600000    37.81400000
   H     88.65500000    83.95000000    37.83800000
   H     88.00200000    85.05100000    39.07600000
   N     89.11000000    85.73000000    36.13000000
   C     89.60000000    86.75000000    35.22000000
   C     88.43000000    87.52000000    34.64000000
   O     87.69000000    87.06000000    33.77000000
   C     90.36000000    86.13000000    34.06000000
   C     91.27000000    87.13000000    33.37000000
   O     92.18000000    86.76000000    32.59000000
   O     91.03000000    88.34000000    33.56000000
   H     89.49000000    84.82000000    35.93000000
   H     90.23000000    87.42000000    35.80000000
   H     89.66000000    85.71000000    33.33000000
   H     91.02000000    85.30000000    34.32000000
   N     88.28000000    88.79000000    35.03000000
   C     87.18000000    89.67000000    34.68000000
   C     87.43000000    90.36000000    33.35000000
   O     86.41000000    90.70000000    32.74000000
   C     86.97000000    90.62000000    35.85000000
   C     88.09000000    91.66000000    35.96000000
   C     87.90000000    92.61000000    37.13000000
   C     89.10000000    93.50000000    37.44000000
   N     89.31000000    94.39000000    36.28000000
   H     88.81000000    89.01000000    35.86000000
   H     86.28000000    89.06000000    34.55000000
   H     86.72000000    90.11000000    36.78000000
   H     86.02000000    91.05000000    35.52000000
   H     87.95000000    92.35000000    35.13000000
   H     89.10000000    91.27000000    36.05000000
   H     87.59000000    92.02000000    37.99000000
   H     87.14000000    93.35000000    36.87000000
   H     90.04000000    92.96000000    37.52000000
   H     88.84000000    94.11000000    38.31000000
   H     89.96000000    95.13000000    36.48000000
   H     89.61000000    93.92000000    35.43000000
   H     88.43000000    94.79000000    36.00000000
   N     88.67000000    90.71000000    33.02000000
   C     88.97000000    91.32000000    31.74000000
   C     89.38000000    90.36000000    30.63000000
   O     89.26000000    90.71000000    29.46000000
   C     90.05000000    92.38000000    31.94000000
   C     90.20000000    93.02000000    33.31000000
   O     89.50000000    94.05000000    33.42000000
   O     90.75000000    92.51000000    34.31000000
   H     89.37000000    90.84000000    33.74000000
   H     88.12000000    91.86000000    31.32000000
   H     90.02000000    93.08000000    31.10000000
   H     91.00000000    91.87000000    31.76000000
   N     89.57000000    89.08000000    30.95000000
   C     89.80000000    87.91000000    30.13000000
   C     90.96000000    88.01000000    29.15000000
   O     90.89000000    87.40000000    28.08000000
   H     89.53000000    88.84000000    31.93000000
   H     88.96000000    87.80000000    29.45000000
   H     89.89000000    86.98000000    30.69000000
   N     91.99000000    88.81000000    29.41000000
   C     93.21000000    89.04000000    28.65000000
   C     94.51000000    88.38000000    29.05000000
   O     95.46000000    88.38000000    28.27000000
   C     93.39000000    90.51000000    28.26000000
   C     92.07000000    91.02000000    27.70000000
   O     91.47000000    92.00000000    28.20000000
   O     91.63000000    90.51000000    26.65000000
   H     92.00000000    89.35000000    30.26000000
   H     93.08000000    88.42000000    27.76000000
   H     94.08000000    90.57000000    27.42000000
   H     93.80000000    91.11000000    29.08000000
   N     94.55000000    87.76000000    30.23000000
   C     95.73000000    87.30000000    30.95000000
   C     95.92000000    85.80000000    31.13000000
   O     95.33000000    84.99000000    30.42000000
   H     93.72000000    87.79000000    30.80000000
   H     95.68000000    87.69000000    31.97000000
   H     96.60000000    87.74000000    30.47000000
   N     96.70000000    85.32000000    32.10000000
   C     97.08000000    83.93000000    32.21000000
   C     98.27000000    83.46000000    31.39000000
   O     98.94000000    84.27000000    30.75000000
   C     97.33000000    83.64000000    33.69000000
   C     98.28000000    84.57000000    34.44000000
   O     96.13000000    83.80000000    34.42000000
   H     96.88000000    85.88000000    32.92000000
   H     96.19000000    83.33000000    32.00000000
   H     97.56000000    82.58000000    33.78000000
   H     96.27000000    83.34000000    35.25000000
   H     99.27000000    84.53000000    33.98000000
   H     98.00000000    85.62000000    34.39000000
   H     98.36000000    84.38000000    35.51000000
   N     98.58000000    82.16000000    31.39000000
   C     99.49000000    81.48000000    30.49000000
   C     98.87000000    80.26000000    29.82000000
   O     99.54000000    79.26000000    29.56000000
   C    100.82000000    81.22000000    31.19000000
   C    100.72000000    80.88000000    32.67000000
   C    101.76000000    82.39000000    30.95000000
   C    102.11000000    80.45000000    33.16000000
   H     98.06000000    81.51000000    31.96000000
   H     99.64000000    82.07000000    29.58000000
   H    101.34000000    80.39000000    30.71000000
   H    100.18000000    79.94000000    32.82000000
   H    100.33000000    81.74000000    33.21000000
   H    101.48000000    83.20000000    31.63000000
   H    102.79000000    82.06000000    31.03000000
   H    101.69000000    82.76000000    29.93000000
   H    102.06000000    80.10000000    34.19000000
   H    102.53000000    79.71000000    32.48000000
   H    102.84000000    81.25000000    33.06000000
   N     97.58000000    80.42000000    29.49000000
   C     96.85000000    79.34000000    28.86000000
   C     96.92000000    78.06000000    29.68000000
   O     96.42000000    77.92000000    30.79000000
   C     95.46000000    79.75000000    28.40000000
   C     94.85000000    78.76000000    27.40000000
   O     94.63000000    79.78000000    29.54000000
   H     97.09000000    81.28000000    29.72000000
   H     97.51000000    79.15000000    28.01000000
   H     95.58000000    80.72000000    27.92000000
   H     93.96000000    80.43000000    29.32000000
   H     95.60000000    78.63000000    26.63000000
   H     94.64000000    77.76000000    27.79000000
   H     93.99000000    79.15000000    26.86000000
   N     97.56000000    77.03000000    29.11000000
   C     97.46000000    75.64000000    29.53000000
   C     98.08000000    75.39000000    30.89000000
   O     97.59000000    74.54000000    31.63000000
   C     97.77000000    74.68000000    28.38000000
   C     97.84000000    73.24000000    28.87000000
   O     99.02000000    74.85000000    27.77000000
   H     98.04000000    77.23000000    28.25000000
   H     96.39000000    75.54000000    29.70000000
   H     96.93000000    74.77000000    27.69000000
   H     98.98000000    74.37000000    26.94000000
   H     98.69000000    73.04000000    29.52000000
   H     97.00000000    73.04000000    29.54000000
   H     97.86000000    72.46000000    28.12000000
   N     99.10000000    76.15000000    31.29000000
   C     99.93000000    75.98000000    32.46000000
   C     99.27000000    76.51000000    33.72000000
   O     98.66000000    77.58000000    33.69000000
   C    101.32000000    76.61000000    32.33000000
   C    102.42000000    75.91000000    31.53000000
   C    102.79000000    74.56000000    32.14000000
   C    103.62000000    74.60000000    33.42000000
   N    105.00000000    75.09000000    33.23000000
   H     99.38000000    76.89000000    30.66000000
   H    100.10000000    74.91000000    32.57000000
   H    101.63000000    76.75000000    33.36000000
   H    101.25000000    77.64000000    32.00000000
   H    103.30000000    76.54000000    31.63000000
   H    102.01000000    75.72000000    30.54000000
   H    103.43000000    74.09000000    31.39000000
   H    101.90000000    73.97000000    32.34000000
   H    103.74000000    73.57000000    33.75000000
   H    103.16000000    75.16000000    34.23000000
   H    105.54000000    74.97000000    34.07000000
   H    105.57000000    74.51000000    32.63000000
   H    104.97000000    76.08000000    33.09000000
   N     99.36000000    75.75000000    34.81000000
   C     98.93000000    76.17000000    36.13000000
   C     98.14000000    75.03000000    36.76000000
   O     98.60000000    73.89000000    36.81000000
   C    100.16000000    76.58000000    36.93000000
   C    100.80000000    77.86000000    36.41000000
   C    101.82000000    78.49000000    37.35000000
   O    101.52000000    79.49000000    38.05000000
   O    102.88000000    77.83000000    37.42000000
   H     99.84000000    74.86000000    34.77000000
   H     98.22000000    77.00000000    36.14000000
   H    100.92000000    75.81000000    37.06000000
   H     99.71000000    76.78000000    37.90000000
   H     99.95000000    78.51000000    36.22000000
   H    101.23000000    77.76000000    35.41000000
   N     96.90000000    75.13000000    37.24000000
   C     95.86000000    76.14000000    37.13000000
   H     94.98200000    75.82000000    37.69200000
   H     96.22500000    77.08400000    37.53500000
   H     95.59100000    76.27300000    36.08200000
   H     96.74000000    74.33000000    37.83000000
  Ca     89.30000000    91.76000000    26.74000000
   O     89.20000000    90.80000000    24.23000000
   H     89.36000000    89.89000000    24.00000000
   H     89.18000000    91.26000000    23.40000000
   O     88.82000000    93.93000000    28.41000000
   H     88.47000000    94.72000000    28.00000000
   H     89.21000000    94.24000000    29.23000000
   O     90.66000000    93.57000000    25.32000000
   H     91.61000000    93.66000000    25.41000000
   H     90.42000000    94.21000000    24.65000000
   O     87.01000000    91.29000000    28.03000000
   H     87.07000000    92.03000000    28.63000000
   H     86.57000000    90.61000000    28.54000000
   O     87.44000000    93.40000000    25.79000000
   H     86.51000000    93.63000000    25.81000000
   H     87.74000000    93.71000000    24.93000000
   O     89.09000000    89.10000000    26.72000000
   H     88.42000000    88.44000000    26.57000000
   H     89.88000000    88.59000000    26.91000000

Ca 1.00



