%chk=loop1.apoCaM-CA-Ng.Init31.run76.water4.chk
%nprocshared=20
%mem=10GB
%nosave
#b3lyp/svp scf=(tight,noincore,xqc) Test 
#IOP(5/87=12) Density=Current Pop=(MK,readradii) iop(6/33=2) iop(6/42=6)

loop1.apoCaM-CA-Ng.Init31.run76.water4 

   0  1 
   C     63.10000000    29.89000000    35.61000000
   C     62.37000000    29.25000000    34.43000000
   O     61.68000000    29.95000000    33.69000000
   H     64.00300000    30.38500000    35.25300000
   H     62.44900000    30.62300000    36.08700000
   H     63.37000000    29.11900000    36.33200000
   N     62.66000000    27.98000000    34.14000000
   C     62.27000000    27.21000000    32.97000000
   C     62.12000000    25.70000000    33.09000000
   O     62.48000000    25.08000000    34.08000000
   C     63.31000000    27.59000000    31.92000000
   C     62.88000000    27.32000000    30.49000000
   O     61.68000000    27.13000000    30.16000000
   O     63.80000000    27.39000000    29.64000000
   H     63.31000000    27.48000000    34.72000000
   H     61.33000000    27.62000000    32.60000000
   H     64.23000000    27.03000000    32.06000000
   H     63.58000000    28.65000000    31.83000000
   N     61.54000000    25.08000000    32.05000000
   C     61.01000000    23.74000000    32.00000000
   C     62.05000000    22.62000000    32.07000000
   O     61.91000000    21.70000000    32.87000000
   C     60.08000000    23.60000000    30.80000000
   C     59.31000000    22.30000000    30.64000000
   C     58.30000000    22.46000000    29.51000000
   C     57.78000000    21.14000000    28.96000000
   N     58.60000000    20.49000000    27.93000000
   H     61.38000000    25.58000000    31.18000000
   H     60.37000000    23.50000000    32.84000000
   H     60.66000000    23.84000000    29.91000000
   H     59.39000000    24.40000000    31.06000000
   H     58.81000000    22.02000000    31.57000000
   H     59.93000000    21.45000000    30.35000000
   H     58.81000000    23.00000000    28.71000000
   H     57.45000000    23.03000000    29.87000000
   H     56.74000000    21.28000000    28.65000000
   H     57.76000000    20.46000000    29.82000000
   H     59.40000000    20.01000000    28.31000000
   H     58.12000000    19.73000000    27.46000000
   H     58.94000000    21.14000000    27.24000000
   N     63.09000000    22.59000000    31.24000000
   C     63.52000000    23.46000000    30.16000000
   C     65.02000000    23.67000000    30.10000000
   O     65.78000000    22.77000000    30.46000000
   C     62.98000000    22.89000000    28.85000000
   C     62.93000000    23.94000000    27.75000000
   O     62.61000000    23.57000000    26.60000000
   O     63.10000000    25.15000000    28.00000000
   H     63.72000000    21.80000000    31.31000000
   H     62.99000000    24.40000000    30.30000000
   H     61.98000000    22.47000000    28.99000000
   H     63.71000000    22.13000000    28.54000000
   N     65.51000000    24.81000000    29.59000000
   C     66.93000000    25.07000000    29.48000000
   C     67.22000000    26.51000000    29.10000000
   O     67.62000000    27.26000000    29.99000000
   H     64.84000000    25.53000000    29.39000000
   H     67.43000000    24.36000000    28.81000000
   H     67.38000000    25.04000000    30.47000000
   N     67.00000000    26.96000000    27.86000000
   C     67.46000000    28.24000000    27.36000000
   C     68.95000000    28.23000000    27.03000000
   O     69.52000000    27.16000000    26.86000000
   C     66.71000000    28.60000000    26.08000000
   C     65.21000000    28.46000000    26.29000000
   O     64.51000000    29.17000000    27.05000000
   O     64.63000000    27.51000000    25.73000000
   H     66.55000000    26.33000000    27.21000000
   H     67.29000000    29.08000000    28.03000000
   H     67.07000000    28.08000000    25.20000000
   H     66.89000000    29.66000000    25.89000000
   N     69.62000000    29.38000000    26.90000000
   C     69.18000000    30.74000000    27.10000000
   C     69.07000000    31.53000000    25.80000000
   O     69.04000000    32.76000000    25.83000000
   H     70.54000000    29.28000000    26.48000000
   H     69.98000000    31.13000000    27.73000000
   H     68.26000000    30.70000000    27.69000000
   N     69.02000000    30.84000000    24.66000000
   C     68.97000000    31.50000000    23.36000000
   C     70.22000000    32.32000000    23.07000000
   O     70.14000000    33.49000000    22.70000000
   C     67.64000000    32.19000000    23.09000000
   C     66.39000000    31.78000000    23.88000000
   O     67.33000000    31.93000000    21.74000000
   H     69.10000000    29.84000000    24.69000000
   H     68.99000000    30.66000000    22.67000000
   H     67.76000000    33.26000000    23.21000000
   H     66.84000000    32.70000000    21.44000000
   H     65.68000000    32.57000000    23.65000000
   H     66.12000000    30.80000000    23.49000000
   H     66.49000000    31.66000000    24.96000000
   N     71.42000000    31.77000000    23.21000000
   C     72.69000000    32.36000000    22.84000000
   C     72.88000000    32.31000000    21.33000000
   O     73.87000000    31.76000000    20.85000000
   C     72.97000000    33.71000000    23.50000000
   C     72.56000000    33.74000000    24.97000000
   C     74.39000000    34.26000000    23.34000000
   C     73.30000000    32.72000000    25.84000000
   H     71.50000000    30.78000000    23.44000000
   H     73.42000000    31.71000000    23.33000000
   H     72.42000000    34.52000000    23.01000000
   H     71.51000000    33.54000000    25.18000000
   H     72.65000000    34.74000000    25.39000000
   H     74.58000000    35.12000000    23.98000000
   H     75.10000000    33.44000000    23.45000000
   H     74.48000000    34.67000000    22.33000000
   H     73.11000000    32.83000000    26.91000000
   H     73.04000000    31.68000000    25.63000000
   H     74.36000000    32.79000000    25.61000000
   N     72.00000000    33.01000000    20.61000000
   C     72.05000000    33.12000000    19.17000000
   C     72.25000000    34.58000000    18.81000000
   O     71.99000000    35.50000000    19.59000000
   C     70.73000000    32.73000000    18.50000000
   C     69.48000000    33.45000000    18.98000000
   O     70.45000000    31.36000000    18.70000000
   H     71.30000000    33.55000000    21.11000000
   H     72.81000000    32.48000000    18.73000000
   H     70.84000000    32.86000000    17.42000000
   H     70.16000000    30.97000000    17.87000000
   H     69.25000000    33.36000000    20.04000000
   H     69.55000000    34.52000000    18.79000000
   H     68.66000000    33.08000000    18.37000000
   N     72.64000000    34.90000000    17.57000000
   C     72.79000000    36.27000000    17.10000000
   C     71.44000000    36.97000000    16.99000000
   O     70.42000000    36.33000000    16.76000000
   C     73.54000000    36.29000000    15.78000000
   C     75.03000000    35.97000000    15.91000000
   O     72.91000000    35.68000000    14.68000000
   H     72.97000000    34.17000000    16.97000000
   H     73.41000000    36.72000000    17.87000000
   H     73.49000000    37.32000000    15.42000000
   H     72.97000000    34.73000000    14.84000000
   H     75.29000000    35.29000000    15.10000000
   H     75.69000000    36.83000000    15.83000000
   H     75.15000000    35.39000000    16.83000000
   N     71.46000000    38.29000000    17.17000000
   C     70.27000000    39.11000000    17.07000000
   C     69.18000000    38.68000000    18.04000000
   O     68.00000000    38.81000000    17.72000000
   C     69.86000000    39.40000000    15.63000000
   C     70.92000000    40.13000000    14.82000000
   C     70.40000000    40.27000000    13.39000000
   C     69.31000000    41.33000000    13.32000000
   N     69.92000000    42.67000000    13.20000000
   H     72.30000000    38.81000000    17.39000000
   H     70.56000000    40.08000000    17.47000000
   H     68.86000000    39.82000000    15.62000000
   H     69.72000000    38.41000000    15.19000000
   H     71.83000000    39.53000000    14.71000000
   H     71.20000000    41.12000000    15.17000000
   H     70.09000000    39.30000000    13.01000000
   H     71.21000000    40.55000000    12.72000000
   H     68.67000000    41.34000000    14.20000000
   H     68.69000000    41.09000000    12.45000000
   H     69.11000000    43.26000000    13.07000000
   H     70.30000000    43.08000000    14.04000000
   H     70.49000000    42.77000000    12.38000000
   N     69.54000000    38.19000000    19.23000000
   C     68.59000000    37.72000000    20.22000000
   C     69.14000000    36.74000000    21.24000000
   O     68.47000000    35.73000000    21.44000000
   C     68.00000000    38.96000000    20.90000000
   C     67.04000000    38.67000000    22.05000000
   C     66.40000000    39.92000000    22.62000000
   O     67.04000000    40.99000000    22.75000000
   O     65.28000000    39.84000000    23.17000000
   H     70.51000000    37.95000000    19.34000000
   H     67.88000000    37.10000000    19.68000000
   H     67.56000000    39.66000000    20.20000000
   H     68.83000000    39.56000000    21.27000000
   H     67.56000000    38.10000000    22.82000000
   H     66.28000000    38.02000000    21.62000000
   N     70.31000000    36.80000000    21.88000000
   C     71.21000000    37.91000000    22.11000000
   H     72.12400000    37.76100000    21.53500000
   H     70.73100000    38.83800000    21.79700000
   H     71.45400000    37.96700000    23.17100000
   H     70.40000000    35.95000000    22.42000000
  Ca     62.45000000    27.46000000    27.38000000
   O     62.03000000    25.75000000    25.14000000
   H     62.57000000    25.85000000    24.36000000
   H     62.34000000    24.94000000    25.55000000
   O     60.14000000    26.17000000    27.52000000
   H     59.55000000    26.50000000    28.19000000
   H     59.57000000    25.71000000    26.90000000
   O     61.23000000    28.91000000    25.63000000
   H     61.04000000    28.49000000    24.80000000
   H     61.23000000    29.85000000    25.43000000
   O     61.40000000    29.69000000    28.36000000
   H     60.52000000    29.96000000    28.09000000
   H     61.77000000    30.47000000    28.78000000

Ca 1.00



