%chk=loop4.apoCaM-CA-Ng.Init31.run98.water4.chk
%nprocshared=20
%mem=10GB
%nosave
#b3lyp/svp scf=(tight,noincore,xqc) Test 
#IOP(5/87=12) Density=Current Pop=(MK,readradii) iop(6/33=2) iop(6/42=6)

loop4.apoCaM-CA-Ng.Init31.run98.water4 

   -3  1 
   C     82.06000000    49.39000000    44.23000000
   C     83.19000000    50.31000000    43.81000000
   O     83.11000000    51.47000000    44.22000000
   H     81.18300000    49.58800000    43.61400000
   H     82.36800000    48.35300000    44.10000000
   H     81.81600000    49.56800000    45.27700000
   N     84.17000000    50.10000000    42.92000000
   C     84.45000000    48.95000000    42.09000000
   C     85.39000000    47.95000000    42.75000000
   O     85.21000000    46.73000000    42.73000000
   C     85.00000000    49.41000000    40.74000000
   C     85.04000000    48.38000000    39.63000000
   O     85.67000000    48.63000000    38.58000000
   O     84.41000000    47.30000000    39.72000000
   H     84.80000000    50.88000000    42.83000000
   H     83.56000000    48.35000000    41.89000000
   H     85.99000000    49.83000000    40.93000000
   H     84.52000000    50.29000000    40.32000000
   N     86.47000000    48.46000000    43.33000000
   C     87.19000000    47.79000000    44.40000000
   C     88.38000000    46.97000000    43.91000000
   O     89.12000000    46.41000000    44.71000000
   C     87.54000000    48.75000000    45.53000000
   C     88.14000000    50.08000000    45.06000000
   C     86.33000000    49.02000000    46.42000000
   C     89.18000000    50.65000000    46.02000000
   H     86.50000000    49.47000000    43.32000000
   H     86.57000000    46.95000000    44.72000000
   H     88.26000000    48.30000000    46.21000000
   H     87.35000000    50.80000000    44.91000000
   H     88.61000000    50.02000000    44.08000000
   H     86.35000000    50.04000000    46.82000000
   H     85.46000000    49.03000000    45.77000000
   H     86.11000000    48.31000000    47.21000000
   H     88.78000000    50.66000000    47.04000000
   H     90.02000000    49.95000000    46.04000000
   H     89.45000000    51.67000000    45.77000000
   N     88.62000000    46.90000000    42.60000000
   C     89.83000000    46.42000000    41.98000000
   C     90.07000000    44.92000000    41.92000000
   O     89.13000000    44.15000000    41.72000000
   C     89.85000000    46.87000000    40.52000000
   C     89.95000000    48.37000000    40.29000000
   O     89.91000000    48.83000000    39.13000000
   O     90.12000000    49.09000000    41.30000000
   H     87.93000000    47.31000000    41.98000000
   H     90.67000000    46.85000000    42.52000000
   H     88.96000000    46.49000000    40.03000000
   H     90.66000000    46.42000000    39.95000000
   N     91.33000000    44.50000000    42.05000000
   C     91.80000000    43.14000000    41.91000000
   C     91.49000000    42.46000000    40.59000000
   O     90.87000000    43.01000000    39.68000000
   H     92.04000000    45.23000000    42.10000000
   H     91.33000000    42.55000000    42.70000000
   H     92.89000000    43.10000000    42.00000000
   N     91.92000000    41.20000000    40.49000000
   C     91.84000000    40.38000000    39.30000000
   C     92.95000000    39.35000000    39.19000000
   O     93.64000000    39.00000000    40.15000000
   C     90.49000000    39.67000000    39.17000000
   C     90.12000000    38.88000000    40.42000000
   O     90.55000000    37.74000000    40.67000000
   O     89.29000000    39.37000000    41.22000000
   H     92.35000000    40.84000000    41.33000000
   H     91.80000000    41.04000000    38.43000000
   H     90.46000000    39.00000000    38.32000000
   H     89.77000000    40.45000000    38.92000000
   N     93.13000000    38.77000000    38.00000000
   C     92.52000000    38.99000000    36.70000000
   C     91.61000000    37.86000000    36.25000000
   O     91.20000000    36.99000000    37.01000000
   H     93.97000000    38.22000000    37.91000000
   H     93.32000000    38.97000000    35.97000000
   H     92.16000000    40.00000000    36.54000000
   N     91.30000000    37.72000000    34.96000000
   C     91.68000000    38.41000000    33.74000000
   C     90.44000000    38.53000000    32.88000000
   O     89.54000000    37.70000000    33.02000000
   C     92.68000000    37.58000000    32.93000000
   C     94.06000000    37.44000000    33.56000000
   C     95.00000000    36.57000000    32.73000000
   N     96.01000000    36.00000000    33.38000000
   O     94.90000000    36.29000000    31.54000000
   H     90.49000000    37.14000000    34.80000000
   H     92.02000000    39.44000000    33.86000000
   H     92.71000000    38.07000000    31.95000000
   H     92.32000000    36.57000000    32.76000000
   H     94.08000000    37.09000000    34.59000000
   H     94.50000000    38.43000000    33.59000000
   H     96.13000000    36.07000000    34.39000000
   H     96.74000000    35.79000000    32.72000000
   N     90.41000000    39.58000000    32.05000000
   C     89.35000000    39.82000000    31.09000000
   C     89.01000000    41.29000000    30.90000000
   O     88.02000000    41.61000000    30.24000000
   C     89.71000000    39.18000000    29.76000000
   C     89.75000000    37.66000000    29.84000000
   C     91.00000000    39.68000000    29.12000000
   H     91.16000000    40.26000000    32.05000000
   H     88.39000000    39.45000000    31.43000000
   H     88.91000000    39.43000000    29.06000000
   H     89.42000000    37.25000000    28.88000000
   H     90.71000000    37.22000000    30.07000000
   H     88.99000000    37.27000000    30.52000000
   H     91.48000000    39.02000000    28.40000000
   H     90.85000000    40.60000000    28.56000000
   H     91.75000000    39.93000000    29.87000000
   N     89.78000000    42.27000000    31.39000000
   C     89.50000000    43.67000000    31.19000000
   C     88.12000000    44.06000000    31.70000000
   O     87.63000000    43.60000000    32.73000000
   C     90.59000000    44.43000000    31.95000000
   C     90.62000000    45.88000000    31.49000000
   N     90.50000000    46.80000000    32.45000000
   O     90.61000000    46.10000000    30.28000000
   H     90.63000000    41.99000000    31.86000000
   H     89.60000000    43.88000000    30.12000000
   H     91.56000000    44.02000000    31.66000000
   H     90.36000000    44.45000000    33.01000000
   H     90.48000000    46.55000000    33.43000000
   H     90.33000000    47.78000000    32.25000000
   N     87.46000000    44.99000000    31.00000000
   C     86.10000000    45.40000000    31.31000000
   C     85.09000000    44.37000000    30.82000000
   O     85.24000000    43.91000000    29.69000000
   C     85.89000000    46.78000000    30.69000000
   C     84.74000000    47.52000000    31.32000000
   C     84.87000000    48.01000000    32.62000000
   C     83.60000000    47.89000000    30.59000000
   C     83.96000000    48.88000000    33.24000000
   C     82.75000000    48.87000000    31.12000000
   C     82.90000000    49.34000000    32.44000000
   O     82.12000000    50.33000000    32.96000000
   H     87.80000000    45.31000000    30.11000000
   H     86.06000000    45.46000000    32.39000000
   H     85.80000000    46.73000000    29.60000000
   H     86.78000000    47.38000000    30.89000000
   H     85.82000000    47.79000000    33.09000000
   H     83.55000000    47.66000000    29.53000000
   H     84.09000000    49.18000000    34.26000000
   H     81.95000000    49.29000000    30.53000000
   H     82.13000000    50.42000000    33.91000000
   N     84.11000000    44.04000000    31.67000000
   C     82.98000000    43.23000000    31.28000000
   C     82.20000000    42.65000000    32.45000000
   O     81.70000000    41.53000000    32.37000000
   C     82.11000000    44.18000000    30.46000000
   C     80.95000000    43.43000000    29.80000000
   C     80.27000000    44.34000000    28.80000000
   O     79.41000000    45.09000000    29.32000000
   O     80.51000000    44.19000000    27.58000000
   H     84.08000000    44.54000000    32.54000000
   H     83.35000000    42.49000000    30.57000000
   H     82.63000000    44.64000000    29.62000000
   H     81.69000000    44.99000000    31.06000000
   H     80.22000000    43.14000000    30.56000000
   H     81.40000000    42.53000000    29.37000000
   N     82.04000000    43.39000000    33.55000000
   C     81.33000000    43.03000000    34.76000000
   C     79.87000000    43.46000000    34.64000000
   O     79.72000000    44.54000000    34.08000000
   C     82.03000000    43.75000000    35.90000000
   C     81.38000000    43.50000000    37.26000000
   C     82.33000000    43.87000000    38.39000000
   O     82.59000000    45.08000000    38.54000000
   O     82.80000000    42.97000000    39.12000000
   H     82.37000000    44.34000000    33.49000000
   H     81.39000000    41.95000000    34.82000000
   H     81.96000000    44.82000000    35.69000000
   H     83.04000000    43.34000000    35.85000000
   H     81.14000000    42.43000000    37.27000000
   H     80.44000000    44.04000000    37.36000000
   N     78.93000000    42.81000000    35.34000000
   C     77.65000000    43.45000000    35.59000000
   H     76.89800000    42.68900000    35.79700000
   H     77.73800000    44.11600000    36.44800000
   H     77.35300000    44.02500000    34.71300000
   H     79.07000000    41.87000000    35.67000000
  Ca     84.25000000    44.89000000    40.55000000
   O     85.16000000    43.75000000    42.87000000
   H     84.54000000    43.03000000    42.88000000
   H     85.27000000    43.99000000    43.79000000
   O     85.51000000    42.47000000    40.09000000
   H     85.74000000    41.86000000    39.39000000
   H     85.98000000    42.15000000    40.86000000
   O     85.57000000    44.50000000    37.97000000
   H     85.54000000    44.32000000    37.03000000
   H     86.05000000    43.76000000    38.34000000
   O     86.92000000    45.13000000    40.34000000
   H     87.50000000    45.10000000    41.10000000
   H     87.49000000    44.99000000    39.59000000

Ca 1.00



