%chk=loop1.holoCaM.run93.water2.chk
%nprocshared=20
%mem=10GB
%nosave
#b3lyp/svp scf=(tight,noincore,xqc) Test 
#IOP(5/87=12) Density=Current Pop=(MK,readradii) iop(6/33=2) iop(6/42=6)

loop1.holoCaM.run93.water2 

   0  1 
   C     40.02000000    69.51000000    42.24000000
   C     38.77000000    69.15000000    43.04000000
   O     37.91000000    70.01000000    43.23000000
   H     40.85500000    68.89600000    42.57700000
   H     39.83900000    69.32700000    41.18100000
   H     40.25900000    70.56300000    42.39200000
   N     38.75000000    67.90000000    43.51000000
   C     37.83000000    67.60000000    44.59000000
   C     38.21000000    68.23000000    45.92000000
   O     39.22000000    67.87000000    46.51000000
   C     37.76000000    66.08000000    44.66000000
   C     37.08000000    65.49000000    45.89000000
   O     37.38000000    64.30000000    46.14000000
   O     36.19000000    66.14000000    46.46000000
   H     39.52000000    67.32000000    43.23000000
   H     36.86000000    68.03000000    44.31000000
   H     38.78000000    65.72000000    44.61000000
   H     37.18000000    65.86000000    43.75000000
   N     37.58000000    69.33000000    46.35000000
   C     38.25000000    70.20000000    47.30000000
   C     38.14000000    69.65000000    48.71000000
   O     39.05000000    69.84000000    49.52000000
   C     37.75000000    71.64000000    47.19000000
   C     37.92000000    72.24000000    45.80000000
   C     37.56000000    73.72000000    45.76000000
   C     38.49000000    74.56000000    46.64000000
   N     39.84000000    74.73000000    46.07000000
   H     36.69000000    69.58000000    45.94000000
   H     39.34000000    70.26000000    47.18000000
   H     38.35000000    72.27000000    47.85000000
   H     36.71000000    71.77000000    47.48000000
   H     37.17000000    71.74000000    45.18000000
   H     38.92000000    72.03000000    45.42000000
   H     36.57000000    73.98000000    46.14000000
   H     37.55000000    74.13000000    44.75000000
   H     38.70000000    74.10000000    47.61000000
   H     37.97000000    75.40000000    47.09000000
   H     39.89000000    74.85000000    45.07000000
   H     40.07000000    75.68000000    46.32000000
   H     40.41000000    73.94000000    46.32000000
   N     37.01000000    68.99000000    48.98000000
   C     36.72000000    68.39000000    50.27000000
   C     37.03000000    66.91000000    50.36000000
   O     36.94000000    66.36000000    51.46000000
   C     35.27000000    68.72000000    50.60000000
   C     34.27000000    68.34000000    49.52000000
   O     34.61000000    67.84000000    48.42000000
   O     33.08000000    68.61000000    49.78000000
   H     36.31000000    68.98000000    48.24000000
   H     37.38000000    68.83000000    51.02000000
   H     35.24000000    69.78000000    50.85000000
   H     35.03000000    68.27000000    51.56000000
   N     37.28000000    66.18000000    49.27000000
   C     37.87000000    64.85000000    49.20000000
   C     36.91000000    63.68000000    49.33000000
   O     37.22000000    62.76000000    50.09000000
   H     37.02000000    66.55000000    48.37000000
   H     38.65000000    64.82000000    49.97000000
   H     38.31000000    64.71000000    48.22000000
   N     35.74000000    63.72000000    48.69000000
   C     34.78000000    62.63000000    48.67000000
   C     34.77000000    61.69000000    47.47000000
   O     33.86000000    60.89000000    47.31000000
   C     33.41000000    63.24000000    48.93000000
   C     33.07000000    64.24000000    47.84000000
   O     32.34000000    65.21000000    48.15000000
   O     33.47000000    64.22000000    46.65000000
   H     35.73000000    64.38000000    47.93000000
   H     34.99000000    61.98000000    49.52000000
   H     33.36000000    63.78000000    49.88000000
   H     32.59000000    62.52000000    49.03000000
   N     35.75000000    61.69000000    46.56000000
   C     35.73000000    61.01000000    45.29000000
   C     34.76000000    61.49000000    44.22000000
   O     34.45000000    60.69000000    43.34000000
   H     36.51000000    62.35000000    46.69000000
   H     35.50000000    59.97000000    45.52000000
   H     36.79000000    60.98000000    45.01000000
   N     34.35000000    62.76000000    44.24000000
   C     33.44000000    63.35000000    43.28000000
   C     33.73000000    64.83000000    43.07000000
   O     34.27000000    65.45000000    43.99000000
   C     31.98000000    63.22000000    43.73000000
   C     31.09000000    62.38000000    42.83000000
   O     31.88000000    62.70000000    45.03000000
   H     34.87000000    63.26000000    44.94000000
   H     33.57000000    62.88000000    42.31000000
   H     31.52000000    64.21000000    43.71000000
   H     32.53000000    63.08000000    45.63000000
   H     30.14000000    62.37000000    43.37000000
   H     30.94000000    62.94000000    41.91000000
   H     31.37000000    61.36000000    42.59000000
   N     33.48000000    65.39000000    41.89000000
   C     33.51000000    66.77000000    41.44000000
   C     32.10000000    67.18000000    41.04000000
   O     31.37000000    66.56000000    40.27000000
   C     34.59000000    66.90000000    40.37000000
   C     35.99000000    66.75000000    40.96000000
   C     34.59000000    68.26000000    39.68000000
   C     37.16000000    66.87000000    39.99000000
   H     33.00000000    64.76000000    41.26000000
   H     33.83000000    67.37000000    42.29000000
   H     34.49000000    66.10000000    39.63000000
   H     36.09000000    65.75000000    41.37000000
   H     36.13000000    67.44000000    41.79000000
   H     33.68000000    68.27000000    39.08000000
   H     34.73000000    69.14000000    40.30000000
   H     35.45000000    68.25000000    39.00000000
   H     38.03000000    66.50000000    40.53000000
   H     36.99000000    66.29000000    39.08000000
   H     37.28000000    67.93000000    39.75000000
   N     31.68000000    68.27000000    41.69000000
   C     30.45000000    69.01000000    41.48000000
   C     30.80000000    70.16000000    40.55000000
   O     31.94000000    70.51000000    40.27000000
   C     30.01000000    69.52000000    42.85000000
   C     29.46000000    68.40000000    43.73000000
   O     31.02000000    70.26000000    43.50000000
   H     32.24000000    68.56000000    42.48000000
   H     29.69000000    68.43000000    40.96000000
   H     29.24000000    70.27000000    42.67000000
   H     31.67000000    69.65000000    43.86000000
   H     30.13000000    67.59000000    43.99000000
   H     29.13000000    68.83000000    44.68000000
   H     28.57000000    67.87000000    43.40000000
   N     29.73000000    70.76000000    40.01000000
   C     29.82000000    72.02000000    39.30000000
   C     30.62000000    73.04000000    40.10000000
   O     31.45000000    73.73000000    39.53000000
   C     28.38000000    72.48000000    39.09000000
   C     27.68000000    71.65000000    38.02000000
   O     27.70000000    72.40000000    40.32000000
   H     28.81000000    70.55000000    40.35000000
   H     30.28000000    71.79000000    38.34000000
   H     28.33000000    73.50000000    38.70000000
   H     26.81000000    72.09000000    40.12000000
   H     27.74000000    70.58000000    38.24000000
   H     26.62000000    71.87000000    38.06000000
   H     28.06000000    71.90000000    37.03000000
   N     30.49000000    73.20000000    41.42000000
   C     31.14000000    74.12000000    42.33000000
   C     32.61000000    73.78000000    42.48000000
   O     33.43000000    74.69000000    42.62000000
   C     30.46000000    73.96000000    43.69000000
   C     31.08000000    74.92000000    44.70000000
   C     30.03000000    75.41000000    45.69000000
   C     30.63000000    76.50000000    46.57000000
   N     29.68000000    77.24000000    47.41000000
   H     29.62000000    72.83000000    41.79000000
   H     31.02000000    75.12000000    41.91000000
   H     30.52000000    72.95000000    44.10000000
   H     29.43000000    74.29000000    43.56000000
   H     31.54000000    75.75000000    44.17000000
   H     31.97000000    74.51000000    45.17000000
   H     29.68000000    74.54000000    46.25000000
   H     29.25000000    75.88000000    45.09000000
   H     31.25000000    77.18000000    45.99000000
   H     31.31000000    76.04000000    47.28000000
   H     30.07000000    78.10000000    47.77000000
   H     28.91000000    77.47000000    46.80000000
   H     29.28000000    76.72000000    48.18000000
   N     33.09000000    72.58000000    42.14000000
   C     34.47000000    72.16000000    42.14000000
   C     35.15000000    72.42000000    40.80000000
   O     36.31000000    72.81000000    40.82000000
   C     34.53000000    70.71000000    42.62000000
   C     34.17000000    70.75000000    44.10000000
   C     34.01000000    69.37000000    44.72000000
   O     33.16000000    68.59000000    44.24000000
   O     34.75000000    68.92000000    45.62000000
   H     32.47000000    71.82000000    41.89000000
   H     35.02000000    72.81000000    42.82000000
   H     35.53000000    70.28000000    42.58000000
   H     33.79000000    70.16000000    42.04000000
   H     33.26000000    71.32000000    44.29000000
   H     34.97000000    71.31000000    44.59000000
   N     34.44000000    72.78000000    39.72000000
   C     34.94000000    73.21000000    38.43000000
   H     35.96300000    72.85600000    38.30100000
   H     34.31100000    72.79800000    37.64000000
   H     34.92400000    74.29900000    38.37800000
   H     33.44000000    72.87000000    39.86000000
  Ca     33.62000000    66.75000000    46.35000000
   O     31.91000000    68.42000000    47.15000000
   H     31.20000000    69.06000000    47.08000000
   H     31.95000000    68.21000000    48.08000000
   O     31.05000000    65.99000000    45.76000000
   H     31.16000000    65.39000000    46.50000000
   H     30.13000000    65.90000000    45.51000000

Ca 1.00



