%chk=loop1.holoCaM.run20.water2.chk
%nprocshared=20
%mem=10GB
%nosave
#b3lyp/svp scf=(tight,noincore,xqc) Test 
#IOP(5/87=12) Density=Current Pop=(MK,readradii) iop(6/33=2) iop(6/42=6)

loop1.holoCaM.run20.water2 

   0  1 
   C     55.80000000    59.77000000     1.50000000
   C     55.08000000    58.82000000     0.54000000
   O     55.50000000    58.71000000    -0.61000000
   H     56.71300000    60.13600000     1.03100000
   H     55.14900000    60.61300000     1.73400000
   H     56.05200000    59.23800000     2.41800000
   N     53.99000000    58.13000000     0.89000000
   C     52.95000000    57.78000000    -0.05000000
   C     52.18000000    59.02000000    -0.50000000
   O     51.52000000    59.73000000     0.25000000
   C     52.03000000    56.73000000     0.57000000
   C     50.94000000    56.35000000    -0.42000000
   O     49.77000000    56.30000000     0.01000000
   O     51.18000000    56.36000000    -1.65000000
   H     53.74000000    58.36000000     1.84000000
   H     53.46000000    57.39000000    -0.93000000
   H     51.59000000    57.26000000     1.42000000
   H     52.62000000    55.86000000     0.86000000
   N     52.29000000    59.37000000    -1.78000000
   C     51.70000000    60.55000000    -2.39000000
   C     50.36000000    60.29000000    -3.06000000
   O     49.80000000    61.32000000    -3.44000000
   C     52.68000000    61.38000000    -3.20000000
   C     53.72000000    62.08000000    -2.33000000
   C     54.71000000    62.88000000    -3.17000000
   C     55.76000000    63.67000000    -2.39000000
   N     55.30000000    64.08000000    -1.06000000
   H     52.78000000    58.69000000    -2.34000000
   H     51.39000000    61.23000000    -1.59000000
   H     52.07000000    62.13000000    -3.71000000
   H     53.24000000    60.73000000    -3.87000000
   H     54.30000000    61.35000000    -1.77000000
   H     53.20000000    62.82000000    -1.73000000
   H     54.08000000    63.59000000    -3.71000000
   H     55.23000000    62.32000000    -3.95000000
   H     56.00000000    64.61000000    -2.89000000
   H     56.63000000    63.01000000    -2.33000000
   H     56.02000000    64.59000000    -0.55000000
   H     54.55000000    64.76000000    -1.07000000
   H     55.12000000    63.26000000    -0.50000000
   N     49.78000000    59.10000000    -3.18000000
   C     48.60000000    58.89000000    -4.00000000
   C     47.56000000    58.03000000    -3.29000000
   O     46.58000000    57.67000000    -3.93000000
   C     48.95000000    58.38000000    -5.39000000
   C     50.09000000    57.41000000    -5.67000000
   O     50.88000000    57.16000000    -4.73000000
   O     50.27000000    56.99000000    -6.83000000
   H     50.27000000    58.29000000    -2.82000000
   H     48.14000000    59.87000000    -4.14000000
   H     49.38000000    59.22000000    -5.94000000
   H     48.00000000    58.16000000    -5.88000000
   N     47.70000000    57.73000000    -1.99000000
   C     46.63000000    57.14000000    -1.22000000
   C     46.54000000    55.63000000    -1.37000000
   O     45.79000000    55.08000000    -0.56000000
   H     48.58000000    57.94000000    -1.54000000
   H     45.65000000    57.57000000    -1.40000000
   H     46.91000000    57.37000000    -0.19000000
   N     47.32000000    54.95000000    -2.22000000
   C     47.21000000    53.53000000    -2.48000000
   C     47.69000000    52.69000000    -1.30000000
   O     47.37000000    51.51000000    -1.35000000
   C     48.01000000    53.13000000    -3.71000000
   C     49.45000000    53.63000000    -3.71000000
   O     49.97000000    54.08000000    -4.76000000
   O     50.21000000    53.40000000    -2.75000000
   H     47.96000000    55.43000000    -2.83000000
   H     46.16000000    53.26000000    -2.62000000
   H     47.55000000    53.73000000    -4.50000000
   H     48.01000000    52.10000000    -4.06000000
   N     48.34000000    53.28000000    -0.30000000
   C     48.75000000    52.61000000     0.92000000
   C     50.20000000    52.13000000     0.90000000
   O     50.63000000    51.50000000     1.86000000
   H     48.47000000    54.29000000    -0.32000000
   H     48.12000000    51.76000000     1.16000000
   H     48.75000000    53.35000000     1.72000000
   N     50.97000000    52.41000000    -0.15000000
   C     52.30000000    51.87000000    -0.36000000
   C     53.31000000    52.89000000    -0.85000000
   O     52.97000000    53.92000000    -1.43000000
   C     52.29000000    50.67000000    -1.31000000
   C     51.40000000    49.58000000    -0.73000000
   O     51.79000000    51.05000000    -2.57000000
   H     50.66000000    53.04000000    -0.88000000
   H     52.64000000    51.58000000     0.64000000
   H     53.32000000    50.37000000    -1.46000000
   H     51.06000000    51.67000000    -2.48000000
   H     50.33000000    49.80000000    -0.80000000
   H     51.52000000    48.63000000    -1.25000000
   H     51.61000000    49.44000000     0.33000000
   N     54.60000000    52.56000000    -0.77000000
   C     55.77000000    53.25000000    -1.29000000
   C     56.41000000    52.41000000    -2.39000000
   O     56.86000000    51.29000000    -2.16000000
   C     56.70000000    53.80000000    -0.20000000
   C     55.95000000    54.80000000     0.67000000
   C     58.02000000    54.40000000    -0.67000000
   C     56.82000000    55.16000000     1.87000000
   H     54.81000000    51.71000000    -0.27000000
   H     55.40000000    54.15000000    -1.78000000
   H     56.88000000    52.98000000     0.49000000
   H     55.03000000    54.44000000     1.13000000
   H     55.72000000    55.70000000     0.09000000
   H     57.82000000    55.32000000    -1.23000000
   H     58.66000000    54.74000000     0.14000000
   H     58.59000000    53.64000000    -1.19000000
   H     57.23000000    54.30000000     2.39000000
   H     57.59000000    55.90000000     1.68000000
   H     56.13000000    55.57000000     2.62000000
   N     56.58000000    53.01000000    -3.57000000
   C     57.21000000    52.41000000    -4.73000000
   C     58.55000000    53.06000000    -5.06000000
   O     58.91000000    54.05000000    -4.42000000
   C     56.26000000    52.40000000    -5.93000000
   C     55.99000000    53.75000000    -6.58000000
   O     56.78000000    51.70000000    -7.04000000
   H     56.28000000    53.96000000    -3.65000000
   H     57.49000000    51.40000000    -4.45000000
   H     55.30000000    51.98000000    -5.62000000
   H     56.01000000    51.60000000    -7.60000000
   H     55.53000000    54.43000000    -5.86000000
   H     56.91000000    54.22000000    -6.93000000
   H     55.29000000    53.72000000    -7.42000000
   N     59.32000000    52.47000000    -5.98000000
   C     60.63000000    52.95000000    -6.35000000
   C     60.69000000    54.47000000    -6.49000000
   O     61.63000000    55.09000000    -6.01000000
   C     61.25000000    52.23000000    -7.54000000
   C     61.78000000    50.82000000    -7.34000000
   O     60.25000000    52.13000000    -8.53000000
   H     59.01000000    51.64000000    -6.47000000
   H     61.34000000    52.80000000    -5.53000000
   H     62.11000000    52.83000000    -7.86000000
   H     60.65000000    51.76000000    -9.33000000
   H     62.81000000    50.81000000    -6.98000000
   H     61.12000000    50.33000000    -6.62000000
   H     61.64000000    50.26000000    -8.26000000
   N     59.73000000    55.03000000    -7.23000000
   C     59.57000000    56.45000000    -7.51000000
   C     59.43000000    57.33000000    -6.27000000
   O     59.98000000    58.43000000    -6.25000000
   C     58.37000000    56.65000000    -8.42000000
   C     58.19000000    55.84000000    -9.71000000
   C     59.06000000    56.16000000   -10.92000000
   C     60.52000000    55.74000000   -10.80000000
   N     61.40000000    56.40000000   -11.78000000
   H     59.01000000    54.37000000    -7.48000000
   H     60.40000000    56.79000000    -8.12000000
   H     58.42000000    57.69000000    -8.75000000
   H     57.45000000    56.61000000    -7.84000000
   H     57.18000000    56.17000000    -9.96000000
   H     58.19000000    54.76000000    -9.62000000
   H     59.01000000    57.25000000   -11.03000000
   H     58.54000000    55.69000000   -11.75000000
   H     60.47000000    54.65000000   -10.88000000
   H     60.76000000    55.88000000    -9.75000000
   H     62.34000000    56.03000000   -11.82000000
   H     61.00000000    56.21000000   -12.68000000
   H     61.41000000    57.39000000   -11.56000000
   N     58.82000000    56.81000000    -5.21000000
   C     58.54000000    57.59000000    -4.02000000
   C     59.66000000    57.51000000    -3.00000000
   O     60.02000000    58.43000000    -2.27000000
   C     57.20000000    57.07000000    -3.49000000
   C     56.06000000    57.19000000    -4.50000000
   C     54.79000000    56.62000000    -3.91000000
   O     54.73000000    55.41000000    -3.61000000
   O     53.72000000    57.27000000    -3.92000000
   H     58.41000000    55.88000000    -5.16000000
   H     58.41000000    58.64000000    -4.30000000
   H     56.77000000    57.66000000    -2.69000000
   H     57.23000000    56.01000000    -3.25000000
   H     56.30000000    56.69000000    -5.44000000
   H     55.90000000    58.26000000    -4.67000000
   N     60.34000000    56.37000000    -2.94000000
   C     61.39000000    56.01000000    -2.01000000
   H     62.23200000    56.69200000    -2.13200000
   H     61.01200000    56.07900000    -0.99000000
   H     61.71800000    54.99000000    -2.20900000
   H     59.98000000    55.59000000    -3.48000000
  Ca     52.14000000    55.12000000    -3.64600000
   O     52.65000000    55.15000000    -6.47600000
   H     51.89000000    55.68000000    -6.71600000
   H     53.09000000    54.95000000    -7.30600000
   O     53.01000000    52.69000000    -4.45600000
   H     53.23000000    52.04000000    -3.78600000
   H     52.56000000    52.19000000    -5.13600000

Ca 1.00



