%chk=loop3.apoCaM-CA-Ng.Init31.run62.water6.chk
%nprocshared=20
%mem=10GB
%nosave
#b3lyp/svp scf=(tight,noincore,xqc) Test 
#IOP(5/87=12) Density=Current Pop=(MK,readradii) iop(6/33=2) iop(6/42=6)

loop3.apoCaM-CA-Ng.Init31.run62.water6 

   0  1 
   C    102.60000000    65.71000000    10.81000000
   C    101.85000000    66.67000000     9.90000000
   O    100.63000000    66.57000000     9.80000000
   H    103.51700000    66.18400000    11.16000000
   H    101.97400000    65.45500000    11.66500000
   H    102.84800000    64.80400000    10.25800000
   N    102.57000000    67.55000000     9.19000000
   C    101.96000000    68.26000000     8.09000000
   C    101.93000000    67.41000000     6.82000000
   O    102.91000000    66.71000000     6.54000000
   C    102.71000000    69.56000000     7.82000000
   C    104.22000000    69.46000000     7.69000000
   O    104.98000000    69.61000000     8.68000000
   O    104.74000000    69.28000000     6.57000000
   H    103.56000000    67.56000000     9.36000000
   H    100.98000000    68.61000000     8.42000000
   H    102.54000000    70.34000000     8.56000000
   H    102.22000000    70.03000000     6.97000000
   N    100.81000000    67.33000000     6.11000000
   C    100.73000000    66.55000000     4.88000000
   C     99.98000000    65.24000000     5.00000000
   O    100.18000000    64.30000000     4.23000000
   C    100.12000000    67.36000000     3.74000000
   C    100.90000000    68.59000000     3.28000000
   C    102.40000000    68.35000000     3.16000000
   C    103.16000000    69.52000000     2.54000000
   N    104.61000000    69.26000000     2.45000000
   H    100.01000000    67.90000000     6.31000000
   H    101.68000000    66.08000000     4.63000000
   H     99.12000000    67.58000000     4.11000000
   H    100.04000000    66.92000000     2.75000000
   H    100.79000000    69.32000000     4.08000000
   H    100.52000000    68.96000000     2.32000000
   H    102.60000000    67.46000000     2.58000000
   H    102.80000000    68.14000000     4.16000000
   H    103.00000000    70.40000000     3.16000000
   H    102.84000000    69.64000000     1.51000000
   H    104.77000000    68.39000000     1.97000000
   H    105.16000000    69.99000000     2.02000000
   H    104.99000000    69.18000000     3.37000000
   N     99.16000000    65.04000000     6.03000000
   C     98.53000000    63.77000000     6.32000000
   C     97.30000000    63.58000000     5.45000000
   O     96.35000000    62.98000000     5.94000000
   C     98.32000000    63.52000000     7.81000000
   C     97.55000000    64.58000000     8.58000000
   O     97.36000000    64.48000000     9.82000000
   O     97.20000000    65.62000000     7.99000000
   H     98.95000000    65.81000000     6.65000000
   H     99.25000000    62.97000000     6.14000000
   H     99.28000000    63.40000000     8.31000000
   H     97.81000000    62.56000000     7.96000000
   N     97.25000000    64.07000000     4.21000000
   C     96.16000000    63.94000000     3.26000000
   C     96.43000000    64.68000000     1.96000000
   O     97.28000000    65.57000000     1.88000000
   H     98.01000000    64.68000000     3.97000000
   H     95.22000000    64.31000000     3.69000000
   H     96.04000000    62.88000000     3.05000000
   N     95.69000000    64.52000000     0.86000000
   C     94.64000000    63.55000000     0.62000000
   C     93.35000000    64.03000000     1.26000000
   O     93.11000000    65.21000000     1.52000000
   C     94.47000000    63.34000000    -0.89000000
   C     95.60000000    62.44000000    -1.37000000
   N     95.84000000    62.27000000    -2.67000000
   O     96.40000000    61.92000000    -0.60000000
   H     95.98000000    65.02000000     0.03000000
   H     94.85000000    62.62000000     1.14000000
   H     94.46000000    64.27000000    -1.45000000
   H     93.59000000    62.76000000    -1.16000000
   H     95.31000000    62.68000000    -3.42000000
   H     96.63000000    61.72000000    -2.98000000
   N     92.39000000    63.18000000     1.63000000
   C     92.32000000    61.75000000     1.39000000
   C     92.88000000    60.87000000     2.50000000
   O     93.35000000    61.35000000     3.54000000
   H     91.51000000    63.59000000     1.93000000
   H     92.69000000    61.45000000     0.41000000
   H     91.32000000    61.33000000     1.44000000
   N     92.72000000    59.56000000     2.32000000
   C     93.03000000    58.53000000     3.30000000
   C     93.66000000    57.33000000     2.60000000
   O     93.41000000    56.18000000     2.95000000
   C     91.70000000    58.21000000     3.98000000
   C     91.15000000    59.38000000     4.76000000
   C     91.57000000    59.68000000     6.06000000
   C     90.21000000    60.27000000     4.22000000
   C     91.16000000    60.84000000     6.74000000
   C     89.80000000    61.46000000     4.83000000
   C     90.28000000    61.75000000     6.12000000
   O     89.96000000    62.90000000     6.78000000
   H     92.47000000    59.26000000     1.39000000
   H     93.71000000    58.94000000     4.04000000
   H     91.79000000    57.31000000     4.60000000
   H     90.87000000    58.00000000     3.32000000
   H     92.12000000    58.97000000     6.65000000
   H     89.97000000    60.06000000     3.19000000
   H     91.55000000    61.03000000     7.73000000
   H     89.15000000    62.16000000     4.33000000
   H     89.38000000    63.40000000     6.21000000
   N     94.46000000    57.57000000     1.56000000
   C     94.71000000    56.75000000     0.39000000
   C     95.61000000    55.54000000     0.60000000
   O     95.81000000    54.75000000    -0.32000000
   C     95.17000000    57.62000000    -0.77000000
   C     94.11000000    58.61000000    -1.24000000
   C     96.52000000    58.31000000    -0.62000000
   C     94.49000000    59.08000000    -2.64000000
   H     94.87000000    58.49000000     1.57000000
   H     93.76000000    56.31000000     0.09000000
   H     95.31000000    56.88000000    -1.56000000
   H     93.98000000    59.39000000    -0.49000000
   H     93.19000000    58.02000000    -1.27000000
   H     96.42000000    59.12000000     0.10000000
   H     97.21000000    57.61000000    -0.14000000
   H     96.96000000    58.75000000    -1.51000000
   H     93.63000000    59.58000000    -3.08000000
   H     95.35000000    59.75000000    -2.63000000
   H     94.81000000    58.25000000    -3.27000000
   N     96.28000000    55.39000000     1.75000000
   C     97.39000000    54.49000000     1.99000000
   C     98.77000000    55.08000000     1.74000000
   O     99.68000000    54.28000000     1.55000000
   C     97.31000000    53.97000000     3.42000000
   O     97.98000000    54.76000000     4.37000000
   H     96.14000000    56.07000000     2.48000000
   H     97.28000000    53.59000000     1.37000000
   H     97.87000000    53.04000000     3.47000000
   H     96.25000000    53.84000000     3.65000000
   H     97.70000000    55.67000000     4.29000000
   N     98.99000000    56.40000000     1.75000000
   C    100.28000000    57.04000000     1.88000000
   C    100.65000000    57.36000000     3.32000000
   O    101.14000000    58.42000000     3.70000000
   C    100.19000000    58.32000000     1.05000000
   H     98.23000000    57.06000000     1.78000000
   H    101.10000000    56.42000000     1.53000000
   H    101.20000000    58.70000000     0.96000000
   H     99.93000000    58.12000000     0.01000000
   H     99.52000000    59.06000000     1.48000000
   N    100.51000000    56.32000000     4.15000000
   C    100.89000000    56.27000000     5.55000000
   C    100.26000000    57.29000000     6.48000000
   O    100.60000000    57.36000000     7.66000000
   C    102.41000000    56.30000000     5.74000000
   H    100.20000000    55.49000000     3.67000000
   H    100.46000000    55.39000000     6.03000000
   H    102.72000000    57.33000000     5.58000000
   H    102.68000000    55.87000000     6.71000000
   H    102.83000000    55.58000000     5.04000000
   N     99.14000000    57.84000000     6.00000000
   C     98.34000000    58.78000000     6.76000000
   C     97.57000000    58.03000000     7.84000000
   O     97.56000000    58.48000000     8.99000000
   C     97.49000000    59.75000000     5.95000000
   C     96.31000000    59.14000000     5.19000000
   C     96.71000000    58.37000000     3.94000000
   O     97.22000000    57.24000000     4.11000000
   O     96.62000000    58.95000000     2.84000000
   H     98.85000000    57.58000000     5.07000000
   H     99.07000000    59.43000000     7.23000000
   H     98.11000000    60.30000000     5.24000000
   H     97.07000000    60.52000000     6.60000000
   H     95.66000000    59.97000000     4.90000000
   H     95.63000000    58.62000000     5.85000000
   N     96.94000000    56.93000000     7.43000000
   C     96.39000000    55.92000000     8.31000000
   H     95.38900000    55.65100000     7.97200000
   H     97.02800000    55.03700000     8.29400000
   H     96.33700000    56.31200000     9.32600000
   H     97.13000000    56.78000000     6.45000000
  Ca     95.98000000    66.55000000    10.58000000
   O     98.15000000    67.99000000     9.98000000
   H     98.14000000    68.57000000     9.22000000
   H     98.92000000    67.44000000     9.85000000
   O     95.34000000    64.65000000    12.59000000
   H     95.89000000    64.44000000    13.34000000
   H     94.46000000    64.41000000    12.86000000
   O     98.25000000    66.31000000    12.10000000
   H     98.81000000    66.21000000    12.87000000
   H     98.60000000    67.06000000    11.63000000
   O     94.41000000    64.55000000     9.46000000
   H     94.98000000    63.79000000     9.37000000
   H     93.58000000    64.27000000     9.08000000
   O     94.70000000    67.58000000     8.43000000
   H     94.44000000    68.45000000     8.12000000
   H     94.63000000    67.02000000     7.66000000
   O     93.38000000    67.03000000    11.14000000
   H     92.54000000    66.70000000    11.45000000
   H     93.16000000    67.66000000    10.46000000

Ca 1.00



