%chk=loop1.apoCaM-CA-Ng.Init295.run88.water6.chk
%nprocshared=20
%mem=10GB
%nosave
#b3lyp/svp scf=(tight,noincore,xqc) Test 
#IOP(5/87=12) Density=Current Pop=(MK,readradii) iop(6/33=2) iop(6/42=6)

loop1.apoCaM-CA-Ng.Init295.run88.water6 

   0  1 
   C    106.27000000    -4.50000000    85.39000000
   C    105.84000000    -3.10000000    85.83000000
   O    104.67000000    -2.74000000    85.74000000
   H    107.25100000    -4.72600000    85.80700000
   H    105.54600000    -5.23200000    85.74800000
   H    106.32000000    -4.54000000    84.30200000
   N    106.78000000    -2.29000000    86.32000000
   C    106.42000000    -1.00000000    86.86000000
   C    106.27000000     0.03000000    85.75000000
   O    107.23000000     0.24000000    85.00000000
   C    107.33000000    -0.54000000    87.99000000
   C    107.62000000    -1.49000000    89.15000000
   O    107.25000000    -2.68000000    89.20000000
   O    108.39000000    -1.10000000    90.05000000
   H    107.75000000    -2.57000000    86.27000000
   H    105.45000000    -1.14000000    87.35000000
   H    106.90000000     0.37000000    88.42000000
   H    108.30000000    -0.15000000    87.68000000
   N    105.17000000     0.78000000    85.74000000
   C    105.08000000     1.88000000    84.79000000
   C    105.83000000     3.11000000    85.26000000
   O    106.27000000     3.94000000    84.47000000
   C    103.61000000     2.05000000    84.42000000
   C    102.74000000     2.62000000    85.54000000
   C    101.29000000     2.92000000    85.18000000
   C    100.30000000     3.57000000    86.14000000
   N    100.05000000     2.74000000    87.33000000
   H    104.34000000     0.60000000    86.27000000
   H    105.51000000     1.56000000    83.84000000
   H    103.20000000     1.13000000    84.00000000
   H    103.57000000     2.74000000    83.58000000
   H    103.11000000     3.58000000    85.89000000
   H    102.71000000     1.97000000    86.42000000
   H    100.91000000     1.95000000    84.88000000
   H    101.32000000     3.53000000    84.28000000
   H     99.37000000     3.63000000    85.58000000
   H    100.63000000     4.53000000    86.55000000
   H     99.57000000     1.87000000    87.14000000
   H    100.94000000     2.59000000    87.77000000
   H     99.47000000     3.24000000    87.99000000
   N    106.14000000     3.23000000    86.55000000
   C    107.14000000     4.12000000    87.11000000
   C    108.19000000     3.48000000    88.01000000
   O    107.90000000     3.18000000    89.17000000
   C    106.44000000     5.29000000    87.79000000
   C    107.42000000     6.32000000    88.33000000
   O    107.16000000     7.01000000    89.34000000
   O    108.42000000     6.63000000    87.65000000
   H    105.73000000     2.53000000    87.16000000
   H    107.62000000     4.57000000    86.24000000
   H    105.82000000     5.02000000    88.65000000
   H    105.74000000     5.78000000    87.12000000
   N    109.36000000     3.24000000    87.42000000
   C    110.42000000     2.52000000    88.10000000
   C    111.60000000     3.47000000    88.26000000
   O    112.13000000     3.92000000    87.25000000
   H    109.49000000     3.49000000    86.45000000
   H    110.66000000     1.64000000    87.49000000
   H    110.07000000     2.11000000    89.04000000
   N    112.15000000     3.62000000    89.47000000
   C    113.17000000     4.61000000    89.76000000
   C    114.39000000     3.99000000    90.43000000
   O    115.09000000     4.70000000    91.13000000
   C    112.74000000     5.91000000    90.42000000
   C    111.53000000     6.45000000    89.69000000
   O    111.56000000     7.22000000    88.70000000
   O    110.40000000     6.22000000    90.17000000
   H    111.86000000     2.99000000    90.21000000
   H    113.60000000     4.89000000    88.80000000
   H    113.59000000     6.56000000    90.20000000
   H    112.61000000     5.77000000    91.49000000
   N    114.70000000     2.70000000    90.23000000
   C    115.74000000     2.00000000    90.96000000
   C    115.78000000     0.48000000    90.83000000
   O    114.93000000    -0.13000000    90.19000000
   H    113.96000000     2.20000000    89.76000000
   H    115.74000000     2.19000000    92.03000000
   H    116.72000000     2.36000000    90.64000000
   N    116.79000000    -0.19000000    91.40000000
   C    116.88000000    -1.63000000    91.36000000
   C    118.33000000    -2.08000000    91.24000000
   O    119.24000000    -1.50000000    91.83000000
   C    116.14000000    -2.19000000    92.57000000
   C    116.17000000    -3.71000000    92.72000000
   O    116.55000000    -1.73000000    93.84000000
   H    117.41000000     0.33000000    92.01000000
   H    116.39000000    -2.01000000    90.46000000
   H    115.10000000    -1.89000000    92.45000000
   H    115.95000000    -1.03000000    94.11000000
   H    115.61000000    -4.02000000    93.60000000
   H    115.59000000    -4.11000000    91.88000000
   H    117.20000000    -4.06000000    92.76000000
   N    118.54000000    -3.12000000    90.43000000
   C    119.70000000    -3.93000000    90.13000000
   C    120.86000000    -3.22000000    89.44000000
   O    122.02000000    -3.52000000    89.67000000
   C    119.34000000    -5.24000000    89.43000000
   C    118.90000000    -5.02000000    87.99000000
   C    118.33000000    -6.04000000    90.24000000
   C    118.67000000    -6.26000000    87.12000000
   H    117.70000000    -3.42000000    89.95000000
   H    120.15000000    -4.24000000    91.08000000
   H    120.26000000    -5.82000000    89.32000000
   H    119.76000000    -4.59000000    87.47000000
   H    118.00000000    -4.41000000    87.99000000
   H    118.28000000    -6.95000000    89.65000000
   H    118.68000000    -6.24000000    91.25000000
   H    117.37000000    -5.53000000    90.32000000
   H    119.43000000    -7.00000000    87.39000000
   H    117.65000000    -6.63000000    87.11000000
   H    118.88000000    -5.96000000    86.09000000
   N    120.58000000    -2.23000000    88.59000000
   C    121.59000000    -1.32000000    88.08000000
   C    121.87000000    -1.78000000    86.66000000
   O    121.02000000    -2.22000000    85.88000000
   C    121.22000000     0.16000000    88.03000000
   C    120.77000000     0.70000000    89.38000000
   O    122.40000000     0.87000000    87.71000000
   H    119.59000000    -2.07000000    88.45000000
   H    122.51000000    -1.44000000    88.66000000
   H    120.49000000     0.40000000    87.26000000
   H    122.16000000     1.72000000    87.33000000
   H    121.24000000     0.18000000    90.22000000
   H    120.80000000     1.77000000    89.54000000
   H    119.68000000     0.57000000    89.42000000
   N    123.15000000    -1.74000000    86.30000000
   C    123.64000000    -1.99000000    84.96000000
   C    123.94000000    -3.46000000    84.73000000
   O    124.80000000    -3.88000000    83.95000000
   C    124.75000000    -1.06000000    84.48000000
   C    126.02000000    -0.98000000    85.32000000
   O    124.26000000     0.27000000    84.45000000
   H    123.82000000    -1.46000000    87.01000000
   H    122.83000000    -1.72000000    84.29000000
   H    125.07000000    -1.38000000    83.48000000
   H    124.94000000     0.74000000    83.96000000
   H    125.89000000    -0.41000000    86.25000000
   H    126.49000000    -1.94000000    85.50000000
   H    126.65000000    -0.28000000    84.78000000
   N    123.11000000    -4.35000000    85.28000000
   C    122.95000000    -5.74000000    84.90000000
   C    122.14000000    -5.95000000    83.64000000
   O    121.03000000    -5.41000000    83.63000000
   C    122.32000000    -6.49000000    86.07000000
   C    123.27000000    -6.47000000    87.27000000
   C    122.97000000    -7.62000000    88.22000000
   C    123.46000000    -8.91000000    87.58000000
   N    122.85000000   -10.09000000    88.23000000
   H    122.47000000    -3.96000000    85.95000000
   H    123.96000000    -6.11000000    84.72000000
   H    122.15000000    -7.50000000    85.70000000
   H    121.35000000    -6.01000000    86.20000000
   H    123.18000000    -5.53000000    87.82000000
   H    124.27000000    -6.44000000    86.84000000
   H    121.93000000    -7.51000000    88.53000000
   H    123.46000000    -7.46000000    89.19000000
   H    124.51000000    -9.13000000    87.76000000
   H    123.33000000    -9.01000000    86.51000000
   H    123.12000000    -9.98000000    89.20000000
   H    121.87000000   -10.11000000    88.00000000
   H    123.18000000   -10.94000000    87.80000000
   N    122.61000000    -6.75000000    82.68000000
   C    121.93000000    -7.05000000    81.44000000
   C    121.49000000    -5.81000000    80.67000000
   O    122.07000000    -4.73000000    80.61000000
   C    122.79000000    -8.00000000    80.61000000
   C    124.13000000    -7.38000000    80.23000000
   C    125.18000000    -8.42000000    79.85000000
   O    124.96000000    -9.63000000    79.66000000
   O    126.33000000    -7.97000000    79.66000000
   H    123.58000000    -7.03000000    82.69000000
   H    121.09000000    -7.60000000    81.87000000
   H    122.29000000    -8.29000000    79.69000000
   H    122.96000000    -8.92000000    81.18000000
   H    124.54000000    -6.86000000    81.10000000
   H    123.98000000    -6.69000000    79.40000000
   N    120.35000000    -5.87000000    79.98000000
   C    119.30000000    -6.87000000    79.95000000
   H    118.42400000    -6.46100000    79.44600000
   H    119.65100000    -7.75000000    79.41100000
   H    119.03500000    -7.15000000    80.97000000
   H    120.10000000    -5.06000000    79.43000000
  Ca    109.34300000     8.66000000    89.01000000
   O    108.66300000     8.74000000    91.75000000
   H    107.74300000     8.89000000    91.98000000
   H    109.04300000     8.34000000    92.53000000
   O    110.75300000     9.93000000    87.12000000
   H    111.61300000    10.31000000    87.32000000
   H    110.73300000     9.87000000    86.17000000
   O    107.86300000     9.47000000    86.93000000
   H    107.99300000    10.31000000    86.48000000
   H    106.98300000     9.19000000    86.68000000
   O    111.52300000     9.70000000    90.16000000
   H    111.54300000    10.49000000    90.70000000
   H    112.17300000     9.11000000    90.55000000
   O    109.06300000    11.45000000    88.99000000
   H    109.21300000    12.06000000    88.27000000
   H    108.43300000    11.90000000    89.55000000
   O    106.86300000     9.86000000    89.60000000
   H    106.34300000     9.70000000    90.39000000
   H    106.38300000    10.53000000    89.12000000

Ca 1.00



