%chk=loop1.apoCaM-CA-Ng.Init295.run90.water5.chk
%nprocshared=20
%mem=10GB
%nosave
#b3lyp/svp scf=(tight,noincore,xqc) Test 
#IOP(5/87=12) Density=Current Pop=(MK,readradii) iop(6/33=2) iop(6/42=6)

loop1.apoCaM-CA-Ng.Init295.run90.water5 

   0  1 
   C      0.52000000    -6.50000000    93.13000000
   C      0.49000000    -5.04000000    93.54000000
   O     -0.49000000    -4.34000000    93.27000000
   H      1.55300000    -6.81400000    92.98300000
   H      0.06400000    -7.10700000    93.91200000
   H     -0.03400000    -6.62800000    92.20000000
   N      1.56000000    -4.53000000    94.16000000
   C      1.67000000    -3.17000000    94.65000000
   C      2.65000000    -2.25000000    93.93000000
   O      3.63000000    -2.69000000    93.34000000
   C      1.94000000    -3.10000000    96.15000000
   C      1.12000000    -4.13000000    96.92000000
   O      1.70000000    -5.09000000    97.47000000
   O     -0.04000000    -3.87000000    97.30000000
   H      2.37000000    -5.12000000    94.27000000
   H      0.70000000    -2.69000000    94.48000000
   H      1.64000000    -2.08000000    96.37000000
   H      2.99000000    -3.16000000    96.43000000
   N      2.42000000    -0.94000000    93.99000000
   C      3.18000000     0.09000000    93.31000000
   C      4.57000000     0.22000000    93.91000000
   O      5.39000000     0.88000000    93.27000000
   C      2.41000000     1.40000000    93.45000000
   C      1.28000000     1.56000000    92.44000000
   C      0.90000000     3.03000000    92.27000000
   C      0.04000000     3.55000000    93.42000000
   N     -0.42000000     4.92000000    93.18000000
   H      1.54000000    -0.60000000    94.37000000
   H      3.22000000    -0.03000000    92.22000000
   H      3.13000000     2.17000000    93.17000000
   H      2.14000000     1.50000000    94.51000000
   H      0.37000000     0.97000000    92.60000000
   H      1.68000000     1.32000000    91.46000000
   H      0.31000000     3.06000000    91.35000000
   H      1.75000000     3.71000000    92.26000000
   H      0.55000000     3.41000000    94.37000000
   H     -0.85000000     2.92000000    93.46000000
   H      0.35000000     5.48000000    92.84000000
   H     -1.18000000     4.90000000    92.51000000
   H     -0.81000000     5.32000000    94.03000000
   N      4.85000000    -0.22000000    95.14000000
   C      6.13000000    -0.02000000    95.80000000
   C      6.40000000    -1.20000000    96.73000000
   O      5.47000000    -1.72000000    97.33000000
   C      6.02000000     1.28000000    96.59000000
   C      7.38000000     1.63000000    97.17000000
   O      8.10000000     2.37000000    96.46000000
   O      7.77000000     1.12000000    98.24000000
   H      4.20000000    -0.73000000    95.72000000
   H      6.90000000    -0.01000000    95.04000000
   H      5.39000000     1.06000000    97.46000000
   H      5.69000000     2.09000000    95.95000000
   N      7.68000000    -1.59000000    96.84000000
   C      8.13000000    -2.63000000    97.74000000
   C      9.59000000    -2.48000000    98.12000000
   O     10.51000000    -2.86000000    97.39000000
   H      8.29000000    -1.22000000    96.13000000
   H      7.98000000    -3.62000000    97.29000000
   H      7.55000000    -2.56000000    98.67000000
   N      9.78000000    -2.02000000    99.36000000
   C     11.01000000    -2.04000000   100.13000000
   C     11.16000000    -3.21000000   101.10000000
   O     10.23000000    -3.61000000   101.80000000
   C     11.10000000    -0.69000000   100.82000000
   C     10.88000000     0.47000000    99.86000000
   O     11.43000000     0.56000000    98.74000000
   O     10.17000000     1.45000000   100.20000000
   H      8.96000000    -1.64000000    99.80000000
   H     11.88000000    -2.00000000    99.47000000
   H     12.12000000    -0.67000000   101.20000000
   H     10.39000000    -0.57000000   101.65000000
   N     12.40000000    -3.61000000   101.35000000
   C     12.64000000    -4.59000000   102.40000000
   C     11.88000000    -5.90000000   102.25000000
   O     11.52000000    -6.29000000   101.15000000
   H     13.17000000    -3.25000000   100.81000000
   H     12.24000000    -4.11000000   103.29000000
   H     13.71000000    -4.78000000   102.51000000
   N     11.59000000    -6.47000000   103.42000000
   C     10.85000000    -7.69000000   103.69000000
   C     11.69000000    -8.80000000   104.29000000
   O     12.69000000    -8.53000000   104.96000000
   C      9.59000000    -7.41000000   104.51000000
   C      8.45000000    -8.41000000   104.32000000
   O      9.85000000    -7.23000000   105.88000000
   H     12.14000000    -6.16000000   104.21000000
   H     10.47000000    -8.03000000   102.73000000
   H      9.15000000    -6.46000000   104.18000000
   H     10.32000000    -6.40000000   105.94000000
   H      8.90000000    -9.39000000   104.15000000
   H      7.78000000    -8.37000000   105.18000000
   H      8.00000000    -8.18000000   103.35000000
   N     11.32000000   -10.07000000   104.09000000
   C     12.11000000   -11.17000000   104.59000000
   C     12.54000000   -12.10000000   103.47000000
   O     13.41000000   -12.94000000   103.66000000
   C     11.47000000   -11.96000000   105.73000000
   C     10.04000000   -12.46000000   105.52000000
   C     11.44000000   -11.06000000   106.97000000
   C      9.94000000   -13.65000000   104.56000000
   H     10.59000000   -10.23000000   103.41000000
   H     13.03000000   -10.77000000   105.04000000
   H     12.09000000   -12.80000000   106.02000000
   H      9.43000000   -11.60000000   105.23000000
   H      9.76000000   -12.86000000   106.49000000
   H     12.42000000   -10.68000000   107.25000000
   H     10.82000000   -10.21000000   106.69000000
   H     11.03000000   -11.59000000   107.83000000
   H      8.99000000   -14.16000000   104.72000000
   H      9.89000000   -13.30000000   103.53000000
   H     10.84000000   -14.26000000   104.60000000
   N     12.09000000   -11.88000000   102.23000000
   C     12.59000000   -12.65000000   101.10000000
   C     11.37000000   -13.27000000   100.44000000
   O     10.23000000   -12.82000000   100.60000000
   C     13.49000000   -11.79000000   100.22000000
   C     12.90000000   -10.41000000    99.95000000
   O     14.82000000   -11.67000000   100.67000000
   H     11.40000000   -11.18000000   102.02000000
   H     13.12000000   -13.53000000   101.46000000
   H     13.56000000   -12.23000000    99.22000000
   H     14.79000000   -11.08000000   101.43000000
   H     12.84000000    -9.93000000   100.92000000
   H     13.56000000    -9.84000000    99.29000000
   H     11.89000000   -10.39000000    99.53000000
   N     11.53000000   -14.15000000    99.45000000
   C     10.43000000   -14.65000000    98.65000000
   C     10.66000000   -16.04000000    98.08000000
   O     11.78000000   -16.55000000    98.04000000
   C     10.13000000   -13.72000000    97.48000000
   C     11.34000000   -13.28000000    96.66000000
   O      9.56000000   -12.57000000    98.07000000
   H     12.46000000   -14.46000000    99.22000000
   H      9.50000000   -14.77000000    99.20000000
   H      9.42000000   -14.16000000    96.78000000
   H      9.61000000   -12.64000000    99.03000000
   H     12.07000000   -14.05000000    96.42000000
   H     11.05000000   -12.72000000    95.77000000
   H     11.92000000   -12.53000000    97.20000000
   N      9.60000000   -16.73000000    97.66000000
   C      9.63000000   -17.89000000    96.80000000
   C      9.07000000   -17.50000000    95.44000000
   O      8.26000000   -16.59000000    95.24000000
   C      8.86000000   -19.03000000    97.47000000
   C      9.34000000   -19.28000000    98.90000000
   C      8.57000000   -20.47000000    99.47000000
   C      7.09000000   -20.35000000    99.83000000
   N      6.94000000   -19.38000000   100.92000000
   H      8.64000000   -16.45000000    97.83000000
   H     10.70000000   -18.09000000    96.71000000
   H      8.93000000   -19.95000000    96.91000000
   H      7.80000000   -18.76000000    97.49000000
   H      9.15000000   -18.46000000    99.58000000
   H     10.41000000   -19.45000000    98.86000000
   H      9.03000000   -20.96000000   100.32000000
   H      8.74000000   -21.17000000    98.64000000
   H      6.66000000   -21.33000000   100.03000000
   H      6.67000000   -19.99000000    98.89000000
   H      7.49000000   -19.70000000   101.72000000
   H      7.21000000   -18.45000000   100.65000000
   H      5.97000000   -19.41000000   101.21000000
   N      9.48000000   -18.29000000    94.44000000
   C      8.96000000   -18.02000000    93.11000000
   C      9.95000000   -17.14000000    92.36000000
   O     11.16000000   -17.21000000    92.53000000
   C      9.06000000   -19.39000000    92.45000000
   C      8.08000000   -20.40000000    93.04000000
   C      8.24000000   -21.71000000    92.29000000
   O      8.32000000   -21.72000000    91.04000000
   O      8.20000000   -22.82000000    92.88000000
   H     10.20000000   -18.99000000    94.49000000
   H      7.96000000   -17.61000000    93.05000000
   H     10.08000000   -19.78000000    92.47000000
   H      8.84000000   -19.45000000    91.38000000
   H      7.03000000   -20.14000000    92.89000000
   H      8.27000000   -20.73000000    94.06000000
   N      9.42000000   -16.29000000    91.47000000
   C      8.10000000   -16.20000000    90.88000000
   H      7.43400000   -15.66900000    91.56000000
   H      8.16000000   -15.65900000    89.93600000
   H      7.71200000   -17.20300000    90.70100000
   H     10.12000000   -15.60000000    91.23000000
  Ca     10.03000000     2.79000000    98.04000000
   O     10.55000000     4.46000000    99.97600000
   H     10.91000000     5.32000000    99.78600000
   H     10.09000000     4.58000000   100.80600000
   O     12.64000000     3.48000000    97.87000000
   H     13.48000000     3.14000000    98.18000000
   H     12.87000000     4.18000000    97.26000000
   O      7.91000000     4.41000000    99.06000000
   H      8.11000000     5.32000000    99.29000000
   H      6.96000000     4.38000000    98.98000000
   O     10.39000000     5.31000000    96.68000000
   H      9.91000000     5.55000000    95.89000000
   H     11.16000000     5.88000000    96.68000000
   O     10.87000000     2.03000000    95.79000000
   H     11.81000000     2.17000000    95.65000000
   H     10.58000000     1.54000000    95.02000000

Ca 1.00



