%chk=loop2.holoCaM-CaMKII.run84.water2.chk
%nprocshared=20
%mem=10GB
%nosave
#b3lyp/svp scf=(tight,noincore,xqc) Test 
#IOP(5/87=12) Density=Current Pop=(MK,readradii) iop(6/33=2) iop(6/42=6)

loop2.holoCaM-CaMKII.run84.water2 

   -2  1 
   C     55.66000000    56.94000000    75.12000000
   C     56.72000000    58.03000000    75.15000000
   O     56.48000000    59.08000000    75.75000000
   H     54.77000000    57.31400000    74.61400000
   H     56.04500000    56.07300000    74.58300000
   H     55.40400000    56.65300000    76.14000000
   N     57.88000000    57.88000000    74.50000000
   C     58.98000000    58.81000000    74.60000000
   C     58.70000000    60.22000000    74.10000000
   O     58.13000000    60.48000000    73.04000000
   C     60.12000000    58.16000000    73.83000000
   C     61.47000000    58.79000000    74.15000000
   O     61.60000000    59.38000000    75.25000000
   O     62.25000000    58.75000000    73.18000000
   H     58.10000000    57.03000000    73.99000000
   H     59.26000000    58.86000000    75.65000000
   H     59.86000000    58.26000000    72.78000000
   H     60.13000000    57.10000000    74.10000000
   N     59.40000000    61.21000000    74.67000000
   C     59.62000000    62.58000000    74.27000000
   C     60.99000000    63.18000000    74.57000000
   O     61.12000000    64.37000000    74.83000000
   C     58.40000000    63.36000000    74.74000000
   H     59.82000000    60.95000000    75.55000000
   H     59.66000000    62.67000000    73.19000000
   H     58.24000000    63.39000000    75.82000000
   H     58.52000000    64.35000000    74.31000000
   H     57.57000000    62.89000000    74.22000000
   N     62.05000000    62.37000000    74.47000000
   C     63.44000000    62.77000000    74.53000000
   C     64.49000000    61.96000000    73.79000000
   O     65.38000000    62.59000000    73.22000000
   C     63.87000000    62.82000000    75.99000000
   C     63.38000000    61.67000000    76.86000000
   O     63.82000000    60.54000000    76.54000000
   O     62.60000000    61.80000000    77.83000000
   H     61.87000000    61.43000000    74.13000000
   H     63.51000000    63.79000000    74.14000000
   H     63.52000000    63.77000000    76.39000000
   H     64.96000000    62.94000000    76.05000000
   N     64.31000000    60.65000000    73.61000000
   C     65.36000000    59.79000000    73.11000000
   C     66.47000000    59.40000000    74.08000000
   O     67.57000000    59.36000000    73.52000000
   H     63.43000000    60.28000000    73.93000000
   H     65.79000000    60.24000000    72.22000000
   H     64.94000000    58.88000000    72.68000000
   N     66.26000000    59.24000000    75.39000000
   C     67.24000000    58.69000000    76.30000000
   C     67.20000000    57.17000000    76.46000000
   O     68.01000000    56.59000000    77.17000000
   C     67.10000000    59.41000000    77.63000000
   C     65.82000000    59.22000000    78.43000000
   N     65.51000000    60.14000000    79.34000000
   O     65.05000000    58.27000000    78.25000000
   H     65.33000000    59.40000000    75.75000000
   H     68.25000000    58.90000000    75.94000000
   H     67.25000000    60.46000000    77.35000000
   H     67.96000000    59.18000000    78.26000000
   H     66.11000000    60.93000000    79.52000000
   H     64.69000000    59.94000000    79.89000000
   N     66.24000000    56.48000000    75.83000000
   C     66.12000000    55.05000000    75.96000000
   C     65.46000000    54.45000000    77.19000000
   O     65.49000000    53.22000000    77.26000000
   H     65.54000000    56.93000000    75.25000000
   H     67.14000000    54.67000000    75.92000000
   H     65.61000000    54.65000000    75.08000000
   N     64.90000000    55.27000000    78.09000000
   C     64.29000000    55.01000000    79.38000000
   C     62.92000000    55.66000000    79.45000000
   O     62.71000000    56.77000000    78.96000000
   C     65.25000000    55.31000000    80.53000000
   C     66.58000000    54.57000000    80.51000000
   O     65.48000000    56.70000000    80.49000000
   H     65.00000000    56.26000000    77.91000000
   H     64.11000000    53.94000000    79.41000000
   H     64.70000000    55.13000000    81.46000000
   H     64.76000000    57.25000000    80.18000000
   H     67.16000000    55.10000000    79.76000000
   H     67.15000000    54.67000000    81.44000000
   H     66.39000000    53.53000000    80.25000000
   N     61.96000000    54.96000000    80.05000000
   C     60.74000000    55.57000000    80.53000000
   C     61.17000000    56.44000000    81.71000000
   O     61.48000000    55.99000000    82.81000000
   C     59.68000000    54.51000000    80.83000000
   C     59.19000000    53.75000000    79.60000000
   C     58.47000000    55.09000000    81.57000000
   C     58.58000000    52.41000000    79.98000000
   H     62.16000000    54.07000000    80.49000000
   H     60.33000000    56.22000000    79.75000000
   H     60.14000000    53.87000000    81.59000000
   H     59.92000000    53.50000000    78.85000000
   H     58.41000000    54.38000000    79.16000000
   H     57.83000000    54.27000000    81.91000000
   H     58.89000000    55.71000000    82.36000000
   H     57.82000000    55.68000000    80.93000000
   H     59.31000000    51.60000000    80.03000000
   H     58.14000000    52.46000000    80.97000000
   H     57.96000000    52.25000000    79.10000000
   N     60.88000000    57.72000000    81.50000000
   C     60.88000000    58.68000000    82.58000000
   C     59.43000000    58.87000000    83.03000000
   O     58.46000000    58.29000000    82.54000000
   C     61.52000000    60.03000000    82.27000000
   C     62.70000000    59.95000000    81.31000000
   O     62.45000000    59.82000000    80.09000000
   O     63.84000000    60.29000000    81.67000000
   H     60.54000000    57.95000000    80.57000000
   H     61.37000000    58.37000000    83.50000000
   H     61.86000000    60.33000000    83.26000000
   H     60.81000000    60.74000000    81.84000000
   N     59.22000000    59.66000000    84.08000000
   C     58.01000000    59.81000000    84.86000000
   C     56.82000000    60.52000000    84.21000000
   O     55.71000000    60.01000000    84.34000000
   C     58.52000000    60.22000000    86.23000000
   C     57.51000000    60.13000000    87.35000000
   C     56.63000000    61.19000000    87.59000000
   C     57.43000000    58.91000000    88.04000000
   C     55.55000000    60.94000000    88.44000000
   C     56.38000000    58.70000000    88.93000000
   C     55.40000000    59.69000000    89.04000000
   H     60.01000000    60.15000000    84.48000000
   H     57.71000000    58.76000000    84.89000000
   H     58.98000000    61.21000000    86.15000000
   H     59.33000000    59.58000000    86.58000000
   H     56.71000000    62.07000000    86.97000000
   H     58.09000000    58.08000000    87.82000000
   H     54.90000000    61.75000000    88.74000000
   H     56.26000000    57.73000000    89.40000000
   H     54.54000000    59.59000000    89.69000000
   N     56.99000000    61.65000000    83.53000000
   C     56.08000000    62.25000000    82.57000000
   C     55.60000000    61.31000000    81.48000000
   O     54.67000000    61.72000000    80.79000000
   C     56.68000000    63.54000000    82.02000000
   C     57.79000000    63.84000000    83.03000000
   C     58.17000000    62.48000000    83.62000000
   H     55.22000000    62.59000000    83.16000000
   H     57.15000000    63.28000000    81.07000000
   H     55.94000000    64.33000000    81.89000000
   H     58.68000000    64.34000000    82.66000000
   H     57.40000000    64.48000000    83.82000000
   H     58.98000000    62.03000000    83.04000000
   H     58.52000000    62.62000000    84.64000000
   N     56.26000000    60.17000000    81.25000000
   C     55.89000000    59.22000000    80.22000000
   C     55.13000000    58.04000000    80.82000000
   O     54.19000000    57.48000000    80.27000000
   C     57.19000000    58.76000000    79.56000000
   C     58.19000000    59.85000000    79.20000000
   C     59.38000000    59.33000000    78.41000000
   O     59.87000000    60.17000000    77.63000000
   O     59.89000000    58.19000000    78.48000000
   H     56.90000000    59.81000000    81.94000000
   H     55.28000000    59.70000000    79.47000000
   H     56.88000000    58.40000000    78.58000000
   H     57.68000000    57.94000000    80.10000000
   H     58.63000000    60.28000000    80.10000000
   H     57.71000000    60.70000000    78.70000000
   N     55.52000000    57.67000000    82.04000000
   C     54.75000000    56.81000000    82.92000000
   H     53.77200000    56.62100000    82.47800000
   H     55.27500000    55.86500000    83.05600000
   H     54.62300000    57.29800000    83.88600000
   H     56.50000000    57.77000000    82.26000000
  Ca     62.24000000    59.07000000    77.63000000
   O     60.52000000    56.42000000    76.72000000
   H     60.12000000    56.89000000    77.45000000
   H     59.78000000    56.17000000    76.17000000
   O     63.03000000    56.77000000    75.89000000
   H     62.23000000    56.34000000    76.20000000
   H     63.07000000    56.55000000    74.96000000

Ca 1.00



