%chk=loop2.holoCaM.run77.water1.chk
%nprocshared=20
%mem=10GB
%nosave
#b3lyp/svp scf=(tight,noincore,xqc) Test 
#IOP(5/87=12) Density=Current Pop=(MK,readradii) iop(6/33=2) iop(6/42=6)

loop2.holoCaM.run77.water1 

   -2  1 
   C     45.57000000    48.34000000    25.67000000
   C     45.22000000    47.39000000    26.80000000
   O     45.88000000    47.52000000    27.83000000
   H     46.59400000    48.15500000    25.34500000
   H     44.88900000    48.17800000    24.83400000
   H     45.48000000    49.36900000    26.01900000
   N     44.31000000    46.44000000    26.55000000
   C     43.78000000    45.65000000    27.64000000
   C     44.75000000    44.57000000    28.09000000
   O     45.20000000    43.62000000    27.45000000
   C     42.41000000    45.21000000    27.16000000
   C     41.71000000    44.12000000    27.96000000
   O     40.83000000    43.42000000    27.41000000
   O     41.84000000    44.03000000    29.20000000
   H     43.75000000    46.53000000    25.72000000
   H     43.63000000    46.32000000    28.49000000
   H     42.65000000    44.88000000    26.15000000
   H     41.81000000    46.12000000    27.12000000
   N     45.07000000    44.70000000    29.38000000
   C     45.94000000    43.74000000    30.02000000
   C     45.36000000    42.37000000    30.33000000
   O     46.16000000    41.44000000    30.43000000
   C     46.48000000    44.45000000    31.25000000
   H     44.66000000    45.40000000    29.98000000
   H     46.73000000    43.52000000    29.30000000
   H     47.03000000    45.37000000    31.07000000
   H     45.67000000    44.87000000    31.85000000
   H     47.10000000    43.78000000    31.86000000
   N     44.03000000    42.27000000    30.44000000
   C     43.41000000    40.98000000    30.68000000
   C     42.97000000    40.18000000    29.46000000
   O     42.97000000    38.96000000    29.44000000
   C     42.12000000    41.21000000    31.47000000
   C     42.21000000    42.14000000    32.67000000
   O     41.85000000    43.33000000    32.50000000
   O     42.59000000    41.73000000    33.79000000
   H     43.42000000    43.07000000    30.36000000
   H     44.08000000    40.39000000    31.29000000
   H     41.75000000    40.25000000    31.81000000
   H     41.38000000    41.66000000    30.80000000
   N     42.65000000    40.95000000    28.42000000
   C     42.08000000    40.41000000    27.20000000
   C     40.67000000    39.91000000    27.46000000
   O     40.39000000    38.76000000    27.14000000
   H     42.38000000    41.90000000    28.62000000
   H     42.72000000    39.62000000    26.80000000
   H     41.93000000    41.22000000    26.48000000
   N     39.82000000    40.76000000    28.04000000
   C     38.49000000    40.46000000    28.54000000
   C     37.45000000    41.45000000    28.03000000
   O     36.26000000    41.29000000    28.27000000
   C     38.49000000    40.35000000    30.06000000
   C     38.36000000    41.65000000    30.85000000
   N     37.72000000    41.63000000    32.02000000
   O     38.93000000    42.65000000    30.44000000
   H     40.14000000    41.70000000    28.25000000
   H     38.17000000    39.52000000    28.08000000
   H     39.36000000    39.79000000    30.39000000
   H     37.74000000    39.62000000    30.37000000
   H     37.34000000    40.81000000    32.46000000
   H     37.71000000    42.48000000    32.58000000
   N     37.88000000    42.44000000    27.25000000
   C     37.07000000    43.28000000    26.38000000
   C     36.65000000    44.62000000    26.97000000
   O     36.28000000    45.51000000    26.21000000
   H     38.84000000    42.73000000    27.38000000
   H     36.21000000    42.72000000    26.01000000
   H     37.72000000    43.50000000    25.54000000
   N     36.54000000    44.77000000    28.29000000
   C     36.23000000    46.01000000    28.96000000
   C     37.53000000    46.71000000    29.35000000
   O     38.45000000    46.12000000    29.90000000
   C     35.23000000    45.94000000    30.11000000
   C     33.74000000    45.75000000    29.83000000
   O     35.59000000    45.08000000    31.17000000
   H     36.87000000    43.94000000    28.78000000
   H     35.81000000    46.70000000    28.22000000
   H     35.28000000    46.96000000    30.50000000
   H     34.79000000    44.89000000    31.66000000
   H     33.17000000    45.67000000    30.75000000
   H     33.53000000    46.62000000    29.21000000
   H     33.71000000    44.88000000    29.18000000
   N     37.57000000    48.03000000    29.19000000
   C     38.55000000    48.97000000    29.69000000
   C     38.29000000    49.26000000    31.16000000
   O     37.33000000    49.97000000    31.44000000
   C     38.58000000    50.24000000    28.85000000
   C     39.05000000    50.10000000    27.40000000
   C     39.36000000    51.37000000    29.52000000
   C     40.45000000    49.53000000    27.20000000
   H     36.75000000    48.45000000    28.76000000
   H     39.51000000    48.49000000    29.53000000
   H     37.58000000    50.68000000    28.79000000
   H     39.05000000    51.10000000    26.97000000
   H     38.40000000    49.42000000    26.86000000
   H     38.92000000    51.57000000    30.49000000
   H     40.34000000    50.90000000    29.63000000
   H     39.33000000    52.32000000    28.98000000
   H     40.54000000    49.69000000    26.12000000
   H     41.20000000    50.14000000    27.70000000
   H     40.47000000    48.45000000    27.26000000
   N     39.22000000    48.83000000    32.02000000
   C     39.34000000    49.36000000    33.36000000
   C     40.41000000    50.43000000    33.53000000
   O     41.10000000    50.79000000    32.58000000
   C     39.61000000    48.14000000    34.25000000
   C     40.76000000    47.27000000    33.78000000
   O     41.91000000    47.37000000    34.27000000
   O     40.47000000    46.30000000    33.05000000
   H     39.86000000    48.07000000    31.82000000
   H     38.41000000    49.79000000    33.73000000
   H     38.68000000    47.58000000    34.21000000
   H     39.70000000    48.41000000    35.30000000
   N     40.33000000    51.14000000    34.66000000
   C     40.90000000    52.46000000    34.79000000
   C     42.38000000    52.56000000    34.44000000
   O     42.72000000    53.49000000    33.71000000
   C     40.63000000    52.97000000    36.20000000
   C     41.34000000    54.28000000    36.44000000
   C     40.95000000    55.38000000    35.67000000
   C     42.26000000    54.40000000    37.49000000
   C     41.47000000    56.65000000    35.96000000
   C     42.73000000    55.68000000    37.81000000
   C     42.37000000    56.79000000    37.03000000
   H     39.78000000    50.80000000    35.44000000
   H     40.36000000    53.08000000    34.07000000
   H     40.88000000    52.26000000    36.98000000
   H     39.54000000    53.08000000    36.26000000
   H     40.23000000    55.35000000    34.87000000
   H     42.53000000    53.57000000    38.13000000
   H     41.24000000    57.48000000    35.31000000
   H     43.43000000    55.73000000    38.63000000
   H     42.89000000    57.71000000    37.23000000
   N     43.34000000    51.68000000    34.76000000
   C     44.71000000    51.76000000    34.29000000
   C     44.89000000    51.37000000    32.83000000
   O     46.01000000    51.48000000    32.35000000
   C     45.59000000    50.97000000    35.25000000
   C     44.65000000    49.87000000    35.74000000
   C     43.39000000    50.72000000    35.84000000
   H     44.96000000    52.82000000    34.35000000
   H     46.58000000    50.66000000    34.89000000
   H     45.68000000    51.63000000    36.10000000
   H     44.51000000    49.08000000    35.01000000
   H     44.90000000    49.50000000    36.73000000
   H     42.51000000    50.08000000    35.72000000
   H     43.35000000    51.33000000    36.75000000
   N     43.82000000    51.01000000    32.11000000
   C     43.72000000    50.86000000    30.67000000
   C     43.03000000    52.03000000    29.97000000
   O     43.41000000    52.48000000    28.89000000
   C     43.00000000    49.56000000    30.33000000
   C     43.51000000    48.28000000    30.99000000
   C     42.61000000    47.06000000    30.87000000
   O     41.41000000    47.19000000    30.55000000
   O     43.08000000    45.95000000    31.20000000
   H     43.04000000    50.70000000    32.66000000
   H     44.64000000    50.70000000    30.12000000
   H     43.13000000    49.43000000    29.26000000
   H     41.92000000    49.59000000    30.48000000
   H     43.76000000    48.47000000    32.03000000
   H     44.50000000    48.09000000    30.57000000
   N     42.14000000    52.76000000    30.64000000
   C     41.80000000    54.12000000    30.27000000
   H     40.88100000    54.41500000    30.77700000
   H     42.60800000    54.79000000    30.56500000
   H     41.65400000    54.17800000    29.19100000
   H     41.93000000    52.42000000    31.57000000
  Ca     40.38000000    44.88000000    31.03000000
   O     38.02000000    44.65000000    32.32000000
   H     37.26000000    44.68000000    31.74000000
   H     37.79000000    45.24000000    33.05000000

Ca 1.00



