%chk=loop1.apoCaM-CA-Ng.Init295.run61.water5.chk
%nprocshared=20
%mem=10GB
%nosave
#b3lyp/svp scf=(tight,noincore,xqc) Test 
#IOP(5/87=12) Density=Current Pop=(MK,readradii) iop(6/33=2) iop(6/42=6)

loop1.apoCaM-CA-Ng.Init295.run61.water5 

   0  1 
   C     58.02000000    67.21000000    40.18000000
   C     56.97000000    68.31000000    40.24000000
   O     55.79000000    67.95000000    40.23000000
   H     58.91700000    67.53500000    40.70700000
   H     57.62900000    66.30800000    40.65100000
   H     58.26700000    66.99900000    39.14000000
   N     57.34000000    69.57000000    40.48000000
   C     56.40000000    70.66000000    40.60000000
   C     56.67000000    71.74000000    39.56000000
   O     57.77000000    71.82000000    39.02000000
   C     56.39000000    71.29000000    41.99000000
   C     56.24000000    70.34000000    43.17000000
   O     57.24000000    70.15000000    43.90000000
   O     55.18000000    69.68000000    43.20000000
   H     58.34000000    69.75000000    40.45000000
   H     55.37000000    70.41000000    40.33000000
   H     55.66000000    72.09000000    41.99000000
   H     57.41000000    71.67000000    42.03000000
   N     55.72000000    72.66000000    39.37000000
   C     55.87000000    73.76000000    38.45000000
   C     56.42000000    75.00000000    39.15000000
   O     56.90000000    75.87000000    38.42000000
   C     54.52000000    74.03000000    37.80000000
   C     53.99000000    72.94000000    36.87000000
   C     52.82000000    73.41000000    36.01000000
   C     52.60000000    72.49000000    34.82000000
   N     51.30000000    72.73000000    34.18000000
   H     54.84000000    72.56000000    39.85000000
   H     56.63000000    73.61000000    37.68000000
   H     54.51000000    74.98000000    37.25000000
   H     53.80000000    74.20000000    38.60000000
   H     53.60000000    72.13000000    37.48000000
   H     54.86000000    72.73000000    36.26000000
   H     52.96000000    74.46000000    35.73000000
   H     51.95000000    73.33000000    36.67000000
   H     52.69000000    71.49000000    35.25000000
   H     53.39000000    72.65000000    34.08000000
   H     50.67000000    73.40000000    34.59000000
   H     51.37000000    72.77000000    33.17000000
   H     50.73000000    71.91000000    34.32000000
   N     56.19000000    75.22000000    40.44000000
   C     56.53000000    76.36000000    41.26000000
   C     56.43000000    75.98000000    42.73000000
   O     55.67000000    75.08000000    43.08000000
   C     55.51000000    77.44000000    40.93000000
   C     55.92000000    78.83000000    41.38000000
   O     55.28000000    79.86000000    41.11000000
   O     57.03000000    78.99000000    41.94000000
   H     55.69000000    74.46000000    40.89000000
   H     57.54000000    76.70000000    41.03000000
   H     54.58000000    77.33000000    41.50000000
   H     55.27000000    77.41000000    39.86000000
   N     57.19000000    76.71000000    43.55000000
   C     57.37000000    76.74000000    44.99000000
   C     58.58000000    77.55000000    45.41000000
   O     59.63000000    77.53000000    44.77000000
   H     57.71000000    77.40000000    43.05000000
   H     57.47000000    75.75000000    45.44000000
   H     56.51000000    77.29000000    45.38000000
   N     58.35000000    78.51000000    46.31000000
   C     59.35000000    79.43000000    46.80000000
   C     59.79000000    79.13000000    48.22000000
   O     59.01000000    78.86000000    49.13000000
   C     58.82000000    80.86000000    46.67000000
   C     58.09000000    81.17000000    45.37000000
   O     58.66000000    80.96000000    44.28000000
   O     56.94000000    81.68000000    45.35000000
   H     57.40000000    78.65000000    46.63000000
   H     60.26000000    79.25000000    46.22000000
   H     59.66000000    81.55000000    46.73000000
   H     58.10000000    80.95000000    47.48000000
   N     61.12000000    79.08000000    48.37000000
   C     61.80000000    78.89000000    49.64000000
   C     62.14000000    77.45000000    49.99000000
   O     62.30000000    76.67000000    49.06000000
   H     61.68000000    79.27000000    47.55000000
   H     61.24000000    79.37000000    50.44000000
   H     62.72000000    79.45000000    49.49000000
   N     62.19000000    77.08000000    51.28000000
   C     62.48000000    75.75000000    51.78000000
   C     63.96000000    75.43000000    51.81000000
   O     64.78000000    76.31000000    52.06000000
   C     61.84000000    75.52000000    53.15000000
   C     62.35000000    76.37000000    54.31000000
   O     60.44000000    75.70000000    53.19000000
   H     62.11000000    77.78000000    52.00000000
   H     62.11000000    74.97000000    51.11000000
   H     61.98000000    74.47000000    53.38000000
   H     60.18000000    76.50000000    52.73000000
   H     62.20000000    77.43000000    54.10000000
   H     61.95000000    76.17000000    55.31000000
   H     63.43000000    76.24000000    54.44000000
   N     64.25000000    74.15000000    51.56000000
   C     65.55000000    73.56000000    51.78000000
   C     66.68000000    74.15000000    50.95000000
   O     67.84000000    73.90000000    51.29000000
   C     65.63000000    72.06000000    51.55000000
   C     65.22000000    71.61000000    50.15000000
   C     64.75000000    71.35000000    52.59000000
   C     65.30000000    70.12000000    49.80000000
   H     63.66000000    73.61000000    50.94000000
   H     65.69000000    73.71000000    52.85000000
   H     66.60000000    71.62000000    51.80000000
   H     65.97000000    72.01000000    49.47000000
   H     64.27000000    72.00000000    49.81000000
   H     65.07000000    70.32000000    52.76000000
   H     64.82000000    71.88000000    53.54000000
   H     63.72000000    71.37000000    52.22000000
   H     64.44000000    69.65000000    50.27000000
   H     65.18000000    70.09000000    48.72000000
   H     66.28000000    69.70000000    50.05000000
   N     66.34000000    74.93000000    49.92000000
   C     67.20000000    75.75000000    49.09000000
   C     68.35000000    74.97000000    48.46000000
   O     68.10000000    74.19000000    47.54000000
   C     66.36000000    76.57000000    48.12000000
   C     65.38000000    77.53000000    48.78000000
   O     67.14000000    77.52000000    47.43000000
   H     65.37000000    74.90000000    49.66000000
   H     67.51000000    76.48000000    49.84000000
   H     65.84000000    75.88000000    47.45000000
   H     66.50000000    78.08000000    46.98000000
   H     65.89000000    78.39000000    49.20000000
   H     64.64000000    77.98000000    48.12000000
   H     64.86000000    77.07000000    49.62000000
   N     69.54000000    75.02000000    49.05000000
   C     70.70000000    74.31000000    48.53000000
   C     70.83000000    72.83000000    48.84000000
   O     71.52000000    72.13000000    48.10000000
   C     71.97000000    75.07000000    48.93000000
   C     73.23000000    74.59000000    48.21000000
   O     72.11000000    75.12000000    50.33000000
   H     69.66000000    75.73000000    49.75000000
   H     70.62000000    74.40000000    47.45000000
   H     71.74000000    76.10000000    48.64000000
   H     71.45000000    75.65000000    50.77000000
   H     74.03000000    75.31000000    48.38000000
   H     73.48000000    73.59000000    48.57000000
   H     73.06000000    74.56000000    47.14000000
   N     70.22000000    72.33000000    49.92000000
   C     70.33000000    70.98000000    50.43000000
   C     69.50000000    69.91000000    49.74000000
   O     68.46000000    70.16000000    49.13000000
   C     69.99000000    71.01000000    51.92000000
   C     71.06000000    71.68000000    52.78000000
   C     70.70000000    71.42000000    54.24000000
   C     71.93000000    71.81000000    55.07000000
   N     72.32000000    73.23000000    54.99000000
   H     69.70000000    72.99000000    50.48000000
   H     71.34000000    70.61000000    50.23000000
   H     69.85000000    69.95000000    52.16000000
   H     69.09000000    71.60000000    52.04000000
   H     71.06000000    72.75000000    52.61000000
   H     72.05000000    71.29000000    52.55000000
   H     70.46000000    70.39000000    54.48000000
   H     69.79000000    71.96000000    54.51000000
   H     72.80000000    71.22000000    54.80000000
   H     71.59000000    71.60000000    56.08000000
   H     73.06000000    73.45000000    55.63000000
   H     72.76000000    73.55000000    54.15000000
   H     71.51000000    73.81000000    55.18000000
   N     69.99000000    68.67000000    49.82000000
   C     69.30000000    67.51000000    49.31000000
   C     70.21000000    66.67000000    48.43000000
   O     71.16000000    66.06000000    48.92000000
   C     68.72000000    66.67000000    50.45000000
   C     67.43000000    67.25000000    51.03000000
   C     66.72000000    66.35000000    52.03000000
   O     65.68000000    65.74000000    51.70000000
   O     67.01000000    66.28000000    53.24000000
   H     70.89000000    68.50000000    50.23000000
   H     68.45000000    67.75000000    48.67000000
   H     69.33000000    66.67000000    51.36000000
   H     68.55000000    65.62000000    50.20000000
   H     66.72000000    67.45000000    50.23000000
   H     67.63000000    68.21000000    51.50000000
   N     69.88000000    66.49000000    47.15000000
   C     68.81000000    67.12000000    46.38000000
   H     67.96800000    67.33600000    47.03800000
   H     69.17500000    68.04900000    45.94200000
   H     68.48700000    66.44600000    45.58700000
   H     70.53000000    66.05000000    46.51000000
  Ca     56.50000000    81.48000000    42.77000000
   O     55.15000000    79.63000000    44.17000000
   H     55.18000000    79.79000000    45.11000000
   H     54.76000000    78.76000000    44.08000000
   O     55.76000000    83.12000000    40.87000000
   H     55.69000000    83.12000000    39.91000000
   H     54.88000000    83.36000000    41.17000000
   O     54.43000000    82.64000000    43.86000000
   H     53.65000000    82.40000000    44.35000000
   H     54.32000000    83.58000000    43.68000000
   O     57.29000000    83.95000000    43.44000000
   H     56.81000000    84.39000000    44.14000000
   H     58.21000000    84.13000000    43.62000000
   O     58.38000000    81.49000000    40.92000000
   H     58.06000000    81.23000000    40.06000000
   H     59.28000000    81.76000000    40.78000000

Ca 1.00



