%chk=loop2.apoCaM-CA-Ng.Init295.run27.water3.chk
%nprocshared=20
%mem=10GB
%nosave
#b3lyp/svp scf=(tight,noincore,xqc) Test 
#IOP(5/87=12) Density=Current Pop=(MK,readradii) iop(6/33=2) iop(6/42=6)

loop2.apoCaM-CA-Ng.Init295.run27.water3 

   -2  1 
   C     87.21000000    59.97000000    43.41000000
   C     88.32000000    60.44000000    42.49000000
   O     88.38000000    61.55000000    41.97000000
   H     86.31000000    59.78100000    42.82500000
   H     87.51700000    59.05200000    43.91100000
   H     87.00400000    60.73900000    44.15400000
   N     89.28000000    59.56000000    42.17000000
   C     90.32000000    59.82000000    41.19000000
   C     91.43000000    60.78000000    41.59000000
   O     92.04000000    60.49000000    42.62000000
   C     90.85000000    58.50000000    40.66000000
   C     91.87000000    58.50000000    39.52000000
   O     92.41000000    57.40000000    39.30000000
   O     92.11000000    59.50000000    38.81000000
   H     89.12000000    58.57000000    42.31000000
   H     89.72000000    60.28000000    40.40000000
   H     90.05000000    57.86000000    40.29000000
   H     91.29000000    58.03000000    41.54000000
   N     91.73000000    61.80000000    40.78000000
   C     92.83000000    62.67000000    41.16000000
   C     92.55000000    63.58000000    42.34000000
   O     91.39000000    63.86000000    42.63000000
   C     93.25000000    63.54000000    39.98000000
   H     91.35000000    61.95000000    39.86000000
   H     93.69000000    62.02000000    41.35000000
   H     92.84000000    64.55000000    40.01000000
   H     94.33000000    63.49000000    39.89000000
   H     92.89000000    63.14000000    39.03000000
   N     93.49000000    64.22000000    43.04000000
   C     94.92000000    64.37000000    42.87000000
   C     95.79000000    63.31000000    43.54000000
   O     95.40000000    62.70000000    44.54000000
   C     95.41000000    65.78000000    43.18000000
   C     94.56000000    66.85000000    42.51000000
   O     94.70000000    67.04000000    41.28000000
   O     94.06000000    67.74000000    43.23000000
   H     93.14000000    64.51000000    43.94000000
   H     95.06000000    64.23000000    41.80000000
   H     96.47000000    65.87000000    42.98000000
   H     95.09000000    66.05000000    44.19000000
   N     96.86000000    62.85000000    42.89000000
   C     97.45000000    61.55000000    43.10000000
   C     96.49000000    60.38000000    42.95000000
   O     95.55000000    60.55000000    42.17000000
   H     97.32000000    63.34000000    42.13000000
   H     97.64000000    61.60000000    44.17000000
   H     98.37000000    61.46000000    42.52000000
   N     96.59000000    59.20000000    43.56000000
   C     97.62000000    58.90000000    44.53000000
   C     97.12000000    58.95000000    45.97000000
   O     97.88000000    58.67000000    46.89000000
   C     98.10000000    57.50000000    44.16000000
   C     98.49000000    57.16000000    42.72000000
   N     99.72000000    56.68000000    42.54000000
   O     97.63000000    57.25000000    41.86000000
   H     95.96000000    58.46000000    43.28000000
   H     98.46000000    59.57000000    44.39000000
   H     97.27000000    56.81000000    44.35000000
   H     98.89000000    57.20000000    44.84000000
   H    100.27000000    56.35000000    43.32000000
   H    100.01000000    56.43000000    41.61000000
   N     95.80000000    59.05000000    46.15000000
   C     95.17000000    59.06000000    47.45000000
   C     95.09000000    60.44000000    48.08000000
   O     94.85000000    60.60000000    49.27000000
   H     95.21000000    59.08000000    45.33000000
   H     95.77000000    58.46000000    48.13000000
   H     94.16000000    58.63000000    47.43000000
   N     95.46000000    61.51000000    47.37000000
   C     95.72000000    62.84000000    47.89000000
   C     94.55000000    63.81000000    47.79000000
   O     94.54000000    64.79000000    47.04000000
   C     97.04000000    63.44000000    47.42000000
   C     97.57000000    64.67000000    48.15000000
   O     98.03000000    62.45000000    47.61000000
   H     95.64000000    61.37000000    46.39000000
   H     95.79000000    62.76000000    48.98000000
   H     96.99000000    63.70000000    46.37000000
   H     98.84000000    62.79000000    47.22000000
   H     98.49000000    64.99000000    47.66000000
   H     96.86000000    65.50000000    48.21000000
   H     97.77000000    64.27000000    49.15000000
   N     93.52000000    63.45000000    48.55000000
   C     92.20000000    64.06000000    48.53000000
   C     92.14000000    65.33000000    49.37000000
   O     92.94000000    65.55000000    50.27000000
   C     91.18000000    62.99000000    48.90000000
   C     91.27000000    61.69000000    48.09000000
   C     91.37000000    62.46000000    50.31000000
   C     91.15000000    61.86000000    46.58000000
   H     93.52000000    62.54000000    48.97000000
   H     92.03000000    64.34000000    47.50000000
   H     90.21000000    63.47000000    48.79000000
   H     90.56000000    60.92000000    48.40000000
   H     92.26000000    61.25000000    48.20000000
   H     92.27000000    61.84000000    50.36000000
   H     91.52000000    63.34000000    50.94000000
   H     90.43000000    62.02000000    50.63000000
   H     90.13000000    62.09000000    46.28000000
   H     91.86000000    62.58000000    46.16000000
   H     91.39000000    60.90000000    46.10000000
   N     91.16000000    66.17000000    49.02000000
   C     90.96000000    67.43000000    49.70000000
   C     89.49000000    67.83000000    49.76000000
   O     88.75000000    67.50000000    48.85000000
   C     91.76000000    68.60000000    49.13000000
   C     91.94000000    68.60000000    47.62000000
   O     92.95000000    68.08000000    47.09000000
   O     91.11000000    69.15000000    46.87000000
   H     90.58000000    65.90000000    48.24000000
   H     91.22000000    67.38000000    50.76000000
   H     92.68000000    68.80000000    49.68000000
   H     91.16000000    69.50000000    49.31000000
   N     89.14000000    68.61000000    50.79000000
   C     87.75000000    69.00000000    50.95000000
   C     86.78000000    67.83000000    50.85000000
   O     86.99000000    66.82000000    51.51000000
   C     87.51000000    69.64000000    52.32000000
   C     86.10000000    70.12000000    52.58000000
   C     85.12000000    69.33000000    53.19000000
   C     85.73000000    71.31000000    51.93000000
   C     83.76000000    69.68000000    53.18000000
   C     84.38000000    71.67000000    51.95000000
   C     83.39000000    70.89000000    52.57000000
   H     89.75000000    68.53000000    51.58000000
   H     87.57000000    69.78000000    50.21000000
   H     88.16000000    70.51000000    52.43000000
   H     87.83000000    68.91000000    53.06000000
   H     85.38000000    68.40000000    53.66000000
   H     86.42000000    72.07000000    51.58000000
   H     83.06000000    68.97000000    53.59000000
   H     84.13000000    72.67000000    51.65000000
   H     82.34000000    71.14000000    52.61000000
   N     85.71000000    68.02000000    50.07000000
   C     84.61000000    67.09000000    49.99000000
   C     84.95000000    65.83000000    49.20000000
   O     84.38000000    64.77000000    49.46000000
   C     83.54000000    67.90000000    49.28000000
   C     84.29000000    68.80000000    48.29000000
   C     85.48000000    69.14000000    49.19000000
   H     84.35000000    66.85000000    51.02000000
   H     82.83000000    67.19000000    48.85000000
   H     83.03000000    68.40000000    50.10000000
   H     84.73000000    68.21000000    47.50000000
   H     83.74000000    69.71000000    48.05000000
   H     86.32000000    69.38000000    48.54000000
   H     85.17000000    70.06000000    49.70000000
   N     86.05000000    65.81000000    48.44000000
   C     86.59000000    64.58000000    47.89000000
   C     86.76000000    63.51000000    48.95000000
   O     86.31000000    62.40000000    48.66000000
   C     88.00000000    64.86000000    47.38000000
   C     88.06000000    65.95000000    46.31000000
   C     89.48000000    66.30000000    45.89000000
   O     89.67000000    67.13000000    44.98000000
   O     90.43000000    65.64000000    46.36000000
   H     86.41000000    66.73000000    48.21000000
   H     86.00000000    64.22000000    47.05000000
   H     88.47000000    63.94000000    47.03000000
   H     88.79000000    65.07000000    48.11000000
   H     87.49000000    66.83000000    46.61000000
   H     87.51000000    65.56000000    45.46000000
   N     87.28000000    63.79000000    50.15000000
   C     87.46000000    62.82000000    51.21000000
   H     88.21200000    63.18300000    51.91000000
   H     86.51600000    62.67500000    51.73500000
   H     87.78800000    61.87200000    50.78400000
   H     87.61000000    64.73000000    50.32000000
  Ca     91.97000000    68.04000000    44.63000000
   O     92.77000000    65.68000000    45.33000000
   H     91.97000000    65.39000000    45.76000000
   H     93.47000000    65.43000000    45.93000000
   O     91.29000000    66.65000000    42.30000000
   H     90.58000000    66.51000000    41.67000000
   H     91.62000000    65.76000000    42.48000000
   O     90.35000000    69.60000000    43.30000000
   H     90.29000000    70.30000000    42.65000000
   H     89.44000000    69.30000000    43.41000000

Ca 1.00



