%chk=loop1.holoCaM-CaMKII.run20.water2.chk
%nprocshared=20
%mem=10GB
%nosave
#b3lyp/svp scf=(tight,noincore,xqc) Test 
#IOP(5/87=12) Density=Current Pop=(MK,readradii) iop(6/33=2) iop(6/42=6)

loop1.holoCaM-CaMKII.run20.water2 

   0  1 
   C     94.03000000    58.55000000    18.12000000
   C     94.83000000    57.68000000    17.16000000
   O     94.45000000    56.52000000    17.11000000
   H     93.04700000    58.10600000    18.27800000
   H     94.55500000    58.61800000    19.07300000
   H     93.91400000    59.54800000    17.69600000
   N     95.87000000    58.12000000    16.44000000
   C     96.70000000    57.23000000    15.65000000
   C     97.78000000    56.62000000    16.54000000
   O     98.59000000    57.37000000    17.08000000
   C     97.23000000    58.01000000    14.45000000
   C     98.21000000    57.26000000    13.56000000
   O     99.10000000    57.98000000    13.05000000
   O     98.15000000    56.03000000    13.34000000
   H     96.13000000    59.09000000    16.41000000
   H     96.16000000    56.40000000    15.20000000
   H     97.63000000    58.96000000    14.78000000
   H     96.40000000    58.07000000    13.74000000
   N     97.59000000    55.32000000    16.78000000
   C     98.45000000    54.63000000    17.71000000
   C     99.66000000    53.85000000    17.20000000
   O    100.49000000    53.37000000    17.96000000
   C     97.56000000    53.81000000    18.64000000
   C     96.87000000    54.55000000    19.79000000
   C     97.74000000    54.64000000    21.04000000
   C     97.07000000    55.41000000    22.17000000
   N     96.76000000    56.81000000    21.83000000
   H     96.83000000    54.86000000    16.29000000
   H     99.02000000    55.34000000    18.31000000
   H     98.06000000    52.96000000    19.11000000
   H     96.82000000    53.30000000    18.02000000
   H     95.96000000    54.04000000    20.10000000
   H     96.48000000    55.52000000    19.45000000
   H     98.60000000    55.24000000    20.73000000
   H     98.00000000    53.66000000    21.44000000
   H     97.76000000    55.35000000    23.02000000
   H     96.18000000    54.88000000    22.50000000
   H     97.29000000    57.09000000    21.01000000
   H     95.82000000    57.03000000    21.55000000
   H     97.01000000    57.51000000    22.51000000
   N     99.80000000    53.74000000    15.88000000
   C    101.01000000    53.18000000    15.31000000
   C    101.75000000    54.14000000    14.38000000
   O    102.66000000    53.81000000    13.63000000
   C    100.74000000    51.84000000    14.64000000
   C     99.46000000    51.84000000    13.82000000
   O     98.79000000    50.79000000    13.65000000
   O     99.02000000    52.91000000    13.35000000
   H     99.09000000    54.28000000    15.42000000
   H    101.74000000    52.80000000    16.03000000
   H    100.51000000    51.18000000    15.48000000
   H    101.58000000    51.39000000    14.12000000
   N    101.39000000    55.43000000    14.40000000
   C    102.11000000    56.60000000    13.93000000
   C    102.31000000    56.64000000    12.42000000
   O    103.27000000    57.21000000    11.90000000
   H    100.61000000    55.68000000    14.99000000
   H    103.14000000    56.60000000    14.30000000
   H    101.69000000    57.53000000    14.29000000
   N    101.39000000    56.05000000    11.66000000
   C    101.34000000    55.95000000    10.21000000
   C    100.60000000    57.07000000     9.49000000
   O    100.49000000    57.01000000     8.26000000
   C    100.81000000    54.57000000     9.85000000
   C     99.39000000    54.24000000    10.30000000
   O     99.16000000    53.03000000    10.53000000
   O     98.55000000    55.16000000    10.44000000
   H    100.65000000    55.72000000    12.26000000
   H    102.32000000    55.88000000     9.74000000
   H    101.51000000    53.89000000    10.34000000
   H    100.85000000    54.37000000     8.78000000
   N    100.15000000    58.07000000    10.24000000
   C     99.45000000    59.18000000     9.61000000
   C     97.99000000    58.88000000     9.30000000
   O     97.44000000    59.56000000     8.44000000
   H    100.07000000    57.93000000    11.23000000
   H     99.91000000    59.52000000     8.69000000
   H     99.48000000    60.08000000    10.23000000
   N     97.29000000    57.86000000     9.81000000
   C     95.92000000    57.50000000     9.49000000
   C     95.21000000    56.89000000    10.68000000
   O     95.81000000    56.06000000    11.37000000
   C     95.78000000    56.58000000     8.27000000
   C     95.85000000    57.36000000     6.96000000
   O     96.83000000    55.64000000     8.26000000
   H     97.78000000    57.31000000    10.50000000
   H     95.39000000    58.41000000     9.24000000
   H     94.85000000    56.01000000     8.27000000
   H     97.56000000    55.96000000     8.79000000
   H     96.78000000    57.84000000     6.65000000
   H     95.58000000    56.68000000     6.16000000
   H     95.06000000    58.10000000     6.90000000
   N     93.92000000    57.18000000    10.88000000
   C     93.19000000    56.65000000    12.02000000
   C     92.10000000    55.72000000    11.51000000
   O     91.29000000    56.15000000    10.69000000
   C     92.48000000    57.77000000    12.78000000
   C     93.55000000    58.63000000    13.44000000
   C     91.50000000    57.24000000    13.82000000
   C     93.21000000    60.09000000    13.69000000
   H     93.59000000    57.98000000    10.36000000
   H     93.82000000    56.07000000    12.69000000
   H     92.01000000    58.43000000    12.04000000
   H     94.50000000    58.64000000    12.90000000
   H     93.77000000    58.26000000    14.44000000
   H     90.65000000    56.66000000    13.46000000
   H     91.99000000    56.63000000    14.58000000
   H     90.98000000    58.07000000    14.30000000
   H     92.18000000    60.23000000    14.02000000
   H     93.90000000    60.65000000    14.33000000
   H     93.34000000    60.64000000    12.76000000
   N     92.16000000    54.46000000    11.95000000
   C     91.20000000    53.46000000    11.53000000
   C     89.99000000    53.32000000    12.44000000
   O     89.86000000    54.08000000    13.39000000
   C     91.93000000    52.12000000    11.54000000
   C     93.19000000    51.96000000    10.69000000
   O     92.30000000    51.82000000    12.87000000
   H     92.97000000    54.20000000    12.50000000
   H     90.87000000    53.61000000    10.50000000
   H     91.19000000    51.43000000    11.14000000
   H     93.22000000    52.05000000    13.01000000
   H     92.96000000    51.59000000     9.69000000
   H     93.79000000    52.87000000    10.70000000
   H     93.81000000    51.17000000    11.11000000
   N     89.05000000    52.45000000    12.03000000
   C     87.79000000    52.23000000    12.70000000
   C     88.00000000    51.45000000    13.99000000
   O     87.38000000    51.67000000    15.03000000
   C     86.87000000    51.39000000    11.81000000
   C     85.42000000    51.29000000    12.28000000
   O     86.78000000    51.85000000    10.48000000
   H     89.25000000    52.00000000    11.15000000
   H     87.31000000    53.18000000    12.95000000
   H     87.37000000    50.43000000    11.91000000
   H     87.59000000    51.65000000    10.01000000
   H     85.06000000    52.27000000    12.60000000
   H     84.76000000    50.86000000    11.53000000
   H     85.39000000    50.72000000    13.22000000
   N     89.03000000    50.59000000    13.98000000
   C     89.43000000    49.89000000    15.18000000
   C     90.02000000    50.86000000    16.19000000
   O     89.78000000    50.70000000    17.38000000
   C     90.32000000    48.71000000    14.82000000
   C     90.90000000    47.78000000    15.89000000
   C     89.91000000    47.09000000    16.83000000
   C     89.15000000    46.00000000    16.09000000
   N     87.86000000    45.65000000    16.70000000
   H     89.37000000    50.32000000    13.07000000
   H     88.51000000    49.46000000    15.57000000
   H     91.22000000    49.08000000    14.31000000
   H     89.74000000    48.07000000    14.15000000
   H     91.58000000    48.40000000    16.48000000
   H     91.48000000    47.00000000    15.39000000
   H     89.37000000    47.87000000    17.37000000
   H     90.48000000    46.57000000    17.60000000
   H     89.80000000    45.13000000    16.10000000
   H     88.97000000    46.28000000    15.05000000
   H     87.55000000    44.83000000    16.19000000
   H     87.98000000    45.40000000    17.67000000
   H     87.21000000    46.42000000    16.60000000
   N     90.87000000    51.76000000    15.69000000
   C     91.60000000    52.72000000    16.48000000
   C     90.66000000    53.76000000    17.08000000
   O     90.68000000    54.00000000    18.29000000
   C     92.56000000    53.56000000    15.64000000
   C     93.97000000    52.98000000    15.73000000
   C     94.88000000    53.53000000    14.64000000
   O     94.56000000    53.65000000    13.44000000
   O     96.05000000    53.90000000    14.91000000
   H     91.07000000    51.68000000    14.70000000
   H     92.07000000    52.24000000    17.34000000
   H     92.55000000    54.59000000    15.99000000
   H     92.18000000    53.54000000    14.62000000
   H     93.88000000    51.93000000    15.47000000
   H     94.35000000    52.96000000    16.75000000
   N     89.68000000    54.24000000    16.31000000
   C     88.64000000    55.11000000    16.80000000
   H     87.74400000    54.52400000    17.00500000
   H     88.97400000    55.59600000    17.71700000
   H     88.41500000    55.86700000    16.04900000
   H     89.70000000    53.89000000    15.36000000
  Ca     97.11000000    53.97000000    12.25000000
   O     96.57000000    51.19000000    12.25000000
   H     97.07000000    50.86000000    13.00000000
   H     96.38000000    50.42000000    11.73000000
   O     96.12000000    53.37000000     9.80000000
   H     95.74000000    52.70000000     9.23000000
   H     96.30000000    54.11000000     9.21000000

Ca 1.00



