%chk=loop3.apoCaM-CA-Ng.Init293.run100.water5.chk
%nprocshared=20
%mem=10GB
%nosave
#b3lyp/svp scf=(tight,noincore,xqc) Test 
#IOP(5/87=12) Density=Current Pop=(MK,readradii) iop(6/33=2) iop(6/42=6)

loop3.apoCaM-CA-Ng.Init293.run100.water5 

   0  1 
   C     95.54000000    80.34000000    25.04000000
   C     96.94000000    80.58000000    24.48000000
   O     97.07000000    81.62000000    23.84000000
   H     94.83000000    80.25300000    24.21700000
   H     95.53400000    79.41900000    25.62300000
   H     95.25500000    81.17600000    25.67800000
   N     97.94000000    79.74000000    24.72000000
   C     99.30000000    80.01000000    24.31000000
   C    100.13000000    79.89000000    25.58000000
   O     99.74000000    79.36000000    26.61000000
   C     99.72000000    78.92000000    23.33000000
   C    101.00000000    79.18000000    22.53000000
   O    101.54000000    80.30000000    22.62000000
   O    101.34000000    78.32000000    21.69000000
   H     97.78000000    79.07000000    25.46000000
   H     99.35000000    81.01000000    23.87000000
   H     98.95000000    78.77000000    22.57000000
   H     99.81000000    77.98000000    23.88000000
   N    101.33000000    80.47000000    25.49000000
   C    102.44000000    80.71000000    26.40000000
   C    103.21000000    79.46000000    26.77000000
   O    102.75000000    78.32000000    26.62000000
   C    101.90000000    81.48000000    27.61000000
   C    103.04000000    82.39000000    28.06000000
   C    102.96000000    83.04000000    29.43000000
   C    103.11000000    82.00000000    30.54000000
   N    104.40000000    81.30000000    30.47000000
   H    101.56000000    80.82000000    24.57000000
   H    103.13000000    81.34000000    25.84000000
   H    101.64000000    80.81000000    28.43000000
   H    101.02000000    82.05000000    27.32000000
   H    103.05000000    83.22000000    27.36000000
   H    103.97000000    81.86000000    27.87000000
   H    101.97000000    83.50000000    29.53000000
   H    103.70000000    83.82000000    29.62000000
   H    102.27000000    81.31000000    30.48000000
   H    103.00000000    82.60000000    31.44000000
   H    105.11000000    81.61000000    31.12000000
   H    104.33000000    80.31000000    30.67000000
   H    104.83000000    81.45000000    29.57000000
   N    104.46000000    79.63000000    27.20000000
   C    105.28000000    78.54000000    27.68000000
   C    104.80000000    77.94000000    28.99000000
   O    104.11000000    78.58000000    29.78000000
   C    106.75000000    78.94000000    27.67000000
   C    107.17000000    80.31000000    28.20000000
   O    106.38000000    81.22000000    28.51000000
   O    108.37000000    80.59000000    28.40000000
   H    104.73000000    80.60000000    27.19000000
   H    105.13000000    77.79000000    26.90000000
   H    107.18000000    78.98000000    26.67000000
   H    107.33000000    78.21000000    28.25000000
   N    105.37000000    76.79000000    29.35000000
   C    105.14000000    76.13000000    30.62000000
   C    106.25000000    76.38000000    31.64000000
   O    107.42000000    76.50000000    31.27000000
   H    105.97000000    76.25000000    28.74000000
   H    105.09000000    75.05000000    30.49000000
   H    104.19000000    76.52000000    30.98000000
   N    105.88000000    76.37000000    32.92000000
   C    106.71000000    76.81000000    34.02000000
   C    106.78000000    75.76000000    35.12000000
   O    106.68000000    76.05000000    36.31000000
   C    106.20000000    78.15000000    34.56000000
   C    106.03000000    79.30000000    33.59000000
   N    106.93000000    80.29000000    33.57000000
   O    105.06000000    79.43000000    32.83000000
   H    104.88000000    76.28000000    33.01000000
   H    107.67000000    77.03000000    33.57000000
   H    106.98000000    78.47000000    35.24000000
   H    105.29000000    77.98000000    35.14000000
   H    107.69000000    80.29000000    34.23000000
   H    107.07000000    80.93000000    32.80000000
   N    106.78000000    74.47000000    34.78000000
   C    106.78000000    73.37000000    35.74000000
   C    105.37000000    73.27000000    36.31000000
   O    104.35000000    73.13000000    35.64000000
   H    107.00000000    74.28000000    33.82000000
   H    107.53000000    73.48000000    36.52000000
   H    106.99000000    72.45000000    35.20000000
   N    105.29000000    73.26000000    37.64000000
   C    104.12000000    73.41000000    38.48000000
   C    103.32000000    74.70000000    38.45000000
   O    102.43000000    74.94000000    39.26000000
   C    103.25000000    72.15000000    38.46000000
   C    101.98000000    72.05000000    39.27000000
   C    101.98000000    71.35000000    40.48000000
   C    100.78000000    72.61000000    38.81000000
   C    100.87000000    71.24000000    41.33000000
   C     99.69000000    72.58000000    39.68000000
   C     99.67000000    71.82000000    40.87000000
   O     98.57000000    71.69000000    41.66000000
   H    106.19000000    73.25000000    38.08000000
   H    104.51000000    73.37000000    39.50000000
   H    103.96000000    71.41000000    38.84000000
   H    102.97000000    71.92000000    37.43000000
   H    102.90000000    70.94000000    40.85000000
   H    100.73000000    73.20000000    37.90000000
   H    101.03000000    70.65000000    42.22000000
   H     98.84000000    73.20000000    39.45000000
   H     97.90000000    72.37000000    41.50000000
   N    103.68000000    75.56000000    37.50000000
   C    103.32000000    76.95000000    37.31000000
   C    103.82000000    77.89000000    38.40000000
   O    104.27000000    78.98000000    38.09000000
   C    101.83000000    77.02000000    36.95000000
   C    101.55000000    76.21000000    35.68000000
   C    101.33000000    78.46000000    36.90000000
   C    102.05000000    76.73000000    34.34000000
   H    104.35000000    75.19000000    36.84000000
   H    103.93000000    77.24000000    36.46000000
   H    101.28000000    76.41000000    37.67000000
   H    100.47000000    76.28000000    35.60000000
   H    101.81000000    75.16000000    35.77000000
   H    101.17000000    78.93000000    37.87000000
   H    102.05000000    79.11000000    36.41000000
   H    100.31000000    78.36000000    36.52000000
   H    103.13000000    76.61000000    34.34000000
   H    101.69000000    76.21000000    33.45000000
   H    101.76000000    77.77000000    34.22000000
   N    103.67000000    77.47000000    39.67000000
   C    104.09000000    78.22000000    40.84000000
   C    103.62000000    79.66000000    40.83000000
   O    104.32000000    80.54000000    41.32000000
   C    103.55000000    77.48000000    42.06000000
   O    102.16000000    77.24000000    42.05000000
   H    103.51000000    76.48000000    39.62000000
   H    105.18000000    78.22000000    40.96000000
   H    103.87000000    77.96000000    42.98000000
   H    103.92000000    76.46000000    42.10000000
   H    101.98000000    76.43000000    42.54000000
   N    102.43000000    79.94000000    40.29000000
   C    101.85000000    81.24000000    40.03000000
   C    102.53000000    82.13000000    39.00000000
   O    102.10000000    83.27000000    38.81000000
   C    101.44000000    81.98000000    41.30000000
   H    101.85000000    79.14000000    40.07000000
   H    100.90000000    80.97000000    39.56000000
   H    102.27000000    81.95000000    42.00000000
   H    101.14000000    83.01000000    41.08000000
   H    100.53000000    81.60000000    41.75000000
   N    103.55000000    81.68000000    38.27000000
   C    104.38000000    82.52000000    37.43000000
   C    103.74000000    82.81000000    36.08000000
   O    103.04000000    81.95000000    35.55000000
   C    105.72000000    81.83000000    37.21000000
   H    103.71000000    80.68000000    38.29000000
   H    104.54000000    83.49000000    37.90000000
   H    105.55000000    80.81000000    36.87000000
   H    106.37000000    82.27000000    36.46000000
   H    106.29000000    81.80000000    38.14000000
   N    104.16000000    83.97000000    35.58000000
   C    103.88000000    84.45000000    34.24000000
   C    102.44000000    84.62000000    33.77000000
   O    102.15000000    84.90000000    32.61000000
   C    104.77000000    83.69000000    33.26000000
   C    106.27000000    83.89000000    33.45000000
   C    107.01000000    83.34000000    32.24000000
   O    107.92000000    84.03000000    31.74000000
   O    106.65000000    82.25000000    31.74000000
   H    104.78000000    84.50000000    36.18000000
   H    104.28000000    85.47000000    34.18000000
   H    104.51000000    84.11000000    32.29000000
   H    104.56000000    82.62000000    33.30000000
   H    106.48000000    83.40000000    34.40000000
   H    106.42000000    84.97000000    33.54000000
   N    101.51000000    84.57000000    34.72000000
   C    100.08000000    84.50000000    34.50000000
   H     99.60700000    85.39600000    34.90200000
   H     99.87900000    84.43200000    33.43100000
   H     99.67700000    83.62100000    35.00300000
   H    101.86000000    84.62000000    35.67000000
  Ca    108.31700000    82.77000000    29.62000000
   O    110.97700000    82.81000000    29.95000000
   H    111.70700000    82.53000000    30.49000000
   H    111.36700000    83.06000000    29.12000000
   O    109.45700000    83.41000000    27.12000000
   H    110.04700000    84.16000000    27.16000000
   H    109.01700000    83.49000000    26.28000000
   O    109.21700000    80.63000000    31.19000000
   H    109.59700000    80.64000000    32.07000000
   H    109.42700000    79.76000000    30.86000000
   O    109.03700000    85.29000000    29.35000000
   H    109.75700000    85.42000000    28.72000000
   H    109.19700000    85.93000000    30.04000000
   O    106.16700000    84.05000000    28.49000000
   H    106.20700000    83.69000000    27.61000000
   H    105.85700000    84.95000000    28.37000000

Ca 1.00



