%chk=loop1.apoCaM-CA-Ng.Init293.run34.water4.chk
%nprocshared=20
%mem=10GB
%nosave
#b3lyp/svp scf=(tight,noincore,xqc) Test 
#IOP(5/87=12) Density=Current Pop=(MK,readradii) iop(6/33=2) iop(6/42=6)

loop1.apoCaM-CA-Ng.Init293.run34.water4 

   0  1 
   C     39.38000000    94.75000000   122.31000000
   C     39.84000000    94.20000000   123.65000000
   O     40.99000000    93.77000000   123.79000000
   H     38.51200000    95.39100000   122.46000000
   H     40.18500000    95.32900000   121.85900000
   H     39.11200000    93.92500000   121.65100000
   N     38.99000000    94.28000000   124.67000000
   C     39.32000000    93.90000000   126.03000000
   C     38.22000000    93.03000000   126.64000000
   O     38.04000000    92.97000000   127.85000000
   C     39.57000000    95.14000000   126.88000000
   C     38.58000000    96.27000000   126.62000000
   O     38.95000000    97.46000000   126.77000000
   O     37.40000000    95.98000000   126.33000000
   H     38.00000000    94.43000000   124.55000000
   H     40.29000000    93.41000000   126.07000000
   H     40.53000000    95.53000000   126.52000000
   H     39.60000000    94.96000000   127.95000000
   N     37.64000000    92.21000000   125.76000000
   C     36.49000000    91.36000000   126.00000000
   C     36.43000000    90.22000000   125.00000000
   O     35.77000000    90.24000000   123.96000000
   C     35.16000000    92.11000000   125.89000000
   C     34.85000000    93.27000000   126.82000000
   C     33.52000000    93.97000000   126.56000000
   C     33.44000000    95.25000000   127.39000000
   N     32.11000000    95.85000000   127.28000000
   H     38.00000000    92.42000000   124.84000000
   H     36.65000000    90.97000000   127.01000000
   H     34.33000000    91.41000000   125.97000000
   H     34.91000000    92.45000000   124.88000000
   H     35.63000000    94.04000000   126.80000000
   H     34.89000000    92.93000000   127.85000000
   H     32.68000000    93.38000000   126.91000000
   H     33.47000000    94.22000000   125.50000000
   H     34.30000000    95.89000000   127.14000000
   H     33.56000000    94.99000000   128.44000000
   H     31.85000000    96.13000000   126.34000000
   H     31.41000000    95.16000000   127.51000000
   H     31.84000000    96.69000000   127.79000000
   N     36.96000000    89.04000000   125.35000000
   C     37.42000000    88.56000000   126.63000000
   C     36.47000000    88.40000000   127.81000000
   O     35.45000000    89.05000000   127.99000000
   C     38.76000000    89.16000000   127.05000000
   C     39.92000000    89.14000000   126.05000000
   O     40.35000000    90.15000000   125.46000000
   O     40.47000000    88.04000000   125.81000000
   H     36.89000000    88.33000000   124.64000000
   H     37.64000000    87.53000000   126.32000000
   H     39.18000000    88.65000000   127.90000000
   H     38.55000000    90.19000000   127.34000000
   N     36.77000000    87.48000000   128.73000000
   C     37.63000000    86.32000000   128.59000000
   C     38.59000000    86.21000000   129.77000000
   O     38.14000000    86.25000000   130.91000000
   H     36.08000000    87.39000000   129.46000000
   H     38.25000000    86.28000000   127.68000000
   H     37.01000000    85.43000000   128.54000000
   N     39.90000000    85.98000000   129.61000000
   C     40.70000000    85.95000000   128.41000000
   C     42.12000000    86.46000000   128.61000000
   O     42.73000000    86.00000000   129.57000000
   C     40.72000000    84.49000000   127.94000000
   C     41.65000000    84.19000000   126.78000000
   O     42.67000000    83.50000000   126.96000000
   O     41.53000000    84.81000000   125.70000000
   H     40.20000000    85.79000000   130.56000000
   H     40.23000000    86.56000000   127.64000000
   H     39.71000000    84.16000000   127.69000000
   H     41.05000000    83.90000000   128.79000000
   N     42.65000000    87.26000000   127.68000000
   C     44.08000000    87.44000000   127.71000000
   C     44.53000000    88.69000000   126.97000000
   O     43.97000000    89.77000000   127.14000000
   H     42.09000000    87.60000000   126.91000000
   H     44.51000000    86.56000000   127.24000000
   H     44.39000000    87.63000000   128.74000000
   N     45.54000000    88.58000000   126.10000000
   C     46.03000000    89.64000000   125.24000000
   C     45.71000000    89.34000000   123.79000000
   O     45.66000000    88.15000000   123.48000000
   C     47.54000000    89.86000000   125.36000000
   C     48.33000000    88.56000000   125.40000000
   O     47.90000000    90.43000000   126.60000000
   H     45.77000000    87.62000000   125.90000000
   H     45.54000000    90.60000000   125.45000000
   H     47.83000000    90.37000000   124.45000000
   H     47.29000000    91.15000000   126.79000000
   H     49.40000000    88.74000000   125.26000000
   H     48.24000000    88.14000000   126.41000000
   H     48.00000000    87.97000000   124.55000000
   N     45.55000000    90.31000000   122.88000000
   C     44.90000000    90.16000000   121.60000000
   C     45.84000000    89.65000000   120.52000000
   O     46.62000000    90.41000000   119.95000000
   C     44.06000000    91.39000000   121.26000000
   C     43.35000000    91.36000000   119.92000000
   C     44.88000000    92.68000000   121.25000000
   C     42.35000000    90.23000000   119.72000000
   H     46.07000000    91.17000000   123.01000000
   H     44.14000000    89.39000000   121.74000000
   H     43.30000000    91.54000000   122.03000000
   H     44.15000000    91.34000000   119.17000000
   H     42.75000000    92.25000000   119.70000000
   H     44.21000000    93.44000000   120.86000000
   H     45.28000000    92.97000000   122.23000000
   H     45.78000000    92.62000000   120.64000000
   H     41.59000000    90.29000000   120.50000000
   H     41.82000000    90.22000000   118.76000000
   H     42.99000000    89.36000000   119.88000000
   N     45.86000000    88.32000000   120.37000000
   C     46.81000000    87.61000000   119.53000000
   C     46.22000000    86.96000000   118.29000000
   O     47.01000000    86.69000000   117.39000000
   C     47.62000000    86.63000000   120.38000000
   C     46.72000000    85.60000000   121.04000000
   O     48.26000000    87.27000000   121.46000000
   H     45.10000000    87.77000000   120.75000000
   H     47.46000000    88.35000000   119.06000000
   H     48.36000000    86.12000000   119.75000000
   H     48.82000000    87.97000000   121.12000000
   H     46.01000000    85.22000000   120.31000000
   H     47.40000000    84.79000000   121.30000000
   H     46.17000000    86.02000000   121.88000000
   N     44.92000000    86.64000000   118.23000000
   C     44.26000000    85.67000000   117.39000000
   C     44.75000000    84.24000000   117.58000000
   O     45.81000000    83.88000000   118.08000000
   C     44.42000000    86.08000000   115.93000000
   C     44.09000000    87.54000000   115.63000000
   O     43.62000000    85.26000000   115.12000000
   H     44.41000000    86.82000000   119.08000000
   H     43.17000000    85.71000000   117.53000000
   H     45.47000000    85.93000000   115.69000000
   H     43.76000000    85.55000000   114.22000000
   H     44.37000000    88.31000000   116.35000000
   H     44.27000000    87.78000000   114.58000000
   H     43.01000000    87.48000000   115.70000000
   N     43.90000000    83.25000000   117.25000000
   C     44.21000000    81.84000000   117.32000000
   C     43.31000000    80.92000000   118.13000000
   O     43.70000000    79.77000000   118.30000000
   C     44.28000000    81.29000000   115.90000000
   C     45.34000000    81.74000000   114.91000000
   C     46.75000000    81.26000000   115.25000000
   C     47.74000000    81.49000000   114.12000000
   N     47.32000000    80.84000000   112.87000000
   H     42.99000000    83.44000000   116.87000000
   H     45.19000000    81.67000000   117.75000000
   H     43.31000000    81.49000000   115.42000000
   H     44.31000000    80.20000000   115.90000000
   H     45.45000000    82.83000000   114.86000000
   H     45.03000000    81.42000000   113.91000000
   H     46.73000000    80.22000000   115.58000000
   H     47.10000000    81.88000000   116.08000000
   H     48.68000000    81.02000000   114.43000000
   H     47.83000000    82.56000000   113.99000000
   H     47.11000000    79.87000000   113.04000000
   H     46.50000000    81.26000000   112.45000000
   H     48.08000000    80.89000000   112.20000000
   N     42.10000000    81.20000000   118.61000000
   C     41.18000000    82.30000000   118.39000000
   C     41.02000000    82.71000000   116.93000000
   O     41.17000000    83.87000000   116.57000000
   C     41.35000000    83.38000000   119.46000000
   C     40.98000000    82.95000000   120.88000000
   C     40.93000000    84.17000000   121.79000000
   O     41.93000000    84.86000000   122.04000000
   O     39.81000000    84.42000000   122.29000000
   H     41.61000000    80.37000000   118.89000000
   H     40.22000000    81.86000000   118.68000000
   H     40.73000000    84.19000000   119.09000000
   H     42.42000000    83.53000000   119.41000000
   H     41.66000000    82.15000000   121.20000000
   H     40.02000000    82.44000000   120.78000000
   N     40.79000000    81.76000000   116.03000000
   C     40.27000000    82.09000000   114.71000000
   H     39.38700000    82.72100000   114.81500000
   H     41.03200000    82.62400000   114.14200000
   H     40.00000000    81.17300000   114.18600000
   H     40.56000000    80.84000000   116.38000000
  Ca     40.69000000    86.28000000   123.92100000
   O     43.45000000    86.50000000   124.36100000
   H     43.77000000    85.60000000   124.45100000
   H     44.01000000    86.89000000   123.68100000
   O     38.47000000    85.30000000   125.31100000
   H     38.54000000    84.40000000   124.98100000
   H     37.57000000    85.56000000   125.12100000
   O     41.66000000    88.54000000   122.53100000
   H     42.31000000    88.95000000   123.10100000
   H     41.02000000    89.23000000   122.36100000
   O     38.76000000    87.65000000   122.87100000
   H     38.73000000    88.60000000   122.80100000
   H     37.88000000    87.36000000   122.62100000

Ca 1.00



