%chk=loop1.apoCaM-CA-Ng.Init295.run63.water6.chk
%nprocshared=20
%mem=10GB
%nosave
#b3lyp/svp scf=(tight,noincore,xqc) Test 
#IOP(5/87=12) Density=Current Pop=(MK,readradii) iop(6/33=2) iop(6/42=6)

loop1.apoCaM-CA-Ng.Init295.run63.water6 

   0  1 
   C     74.87000000   -14.47000000    51.94000000
   C     73.84000000   -13.35000000    51.95000000
   O     72.77000000   -13.41000000    51.33000000
   H     75.77100000   -14.13900000    52.45600000
   H     74.46200000   -15.34400000    52.44800000
   H     75.11600000   -14.72900000    50.91000000
   N     74.13000000   -12.25000000    52.64000000
   C     73.40000000   -11.00000000    52.70000000
   C     73.77000000    -9.97000000    51.64000000
   O     74.77000000   -10.14000000    50.95000000
   C     73.50000000   -10.45000000    54.12000000
   C     72.38000000    -9.57000000    54.68000000
   O     71.48000000    -9.17000000    53.92000000
   O     72.30000000    -9.39000000    55.91000000
   H     75.09000000   -12.30000000    52.97000000
   H     72.40000000   -11.43000000    52.60000000
   H     74.48000000   -10.01000000    54.26000000
   H     73.63000000   -11.30000000    54.80000000
   N     72.89000000    -8.98000000    51.47000000
   C     72.96000000    -7.95000000    50.44000000
   C     73.49000000    -6.63000000    50.96000000
   O     73.75000000    -5.75000000    50.13000000
   C     71.54000000    -7.85000000    49.90000000
   C     71.56000000    -7.06000000    48.59000000
   C     70.37000000    -7.40000000    47.70000000
   C     70.02000000    -6.23000000    46.78000000
   N     68.90000000    -6.68000000    45.94000000
   H     72.15000000    -8.94000000    52.15000000
   H     73.67000000    -8.22000000    49.66000000
   H     70.83000000    -7.38000000    50.58000000
   H     71.15000000    -8.84000000    49.67000000
   H     72.48000000    -7.24000000    48.04000000
   H     71.47000000    -6.03000000    48.94000000
   H     69.55000000    -7.53000000    48.40000000
   H     70.50000000    -8.34000000    47.16000000
   H     70.92000000    -6.14000000    46.17000000
   H     69.72000000    -5.30000000    47.27000000
   H     68.59000000    -5.85000000    45.45000000
   H     69.25000000    -7.32000000    45.24000000
   H     68.17000000    -7.09000000    46.51000000
   N     73.50000000    -6.35000000    52.26000000
   C     73.97000000    -5.18000000    52.99000000
   C     74.69000000    -5.59000000    54.27000000
   O     74.30000000    -6.56000000    54.91000000
   C     72.81000000    -4.24000000    53.29000000
   C     73.12000000    -2.91000000    53.96000000
   O     72.14000000    -2.37000000    54.52000000
   O     74.24000000    -2.37000000    53.85000000
   H     73.45000000    -7.19000000    52.81000000
   H     74.64000000    -4.66000000    52.31000000
   H     72.05000000    -4.81000000    53.82000000
   H     72.49000000    -3.93000000    52.29000000
   N     75.57000000    -4.69000000    54.70000000
   C     76.25000000    -4.77000000    55.98000000
   C     77.20000000    -3.60000000    56.18000000
   O     78.10000000    -3.31000000    55.40000000
   H     75.64000000    -3.82000000    54.19000000
   H     76.77000000    -5.73000000    55.99000000
   H     75.52000000    -4.86000000    56.79000000
   N     76.99000000    -2.89000000    57.30000000
   C     77.73000000    -1.69000000    57.61000000
   C     78.11000000    -1.79000000    59.08000000
   O     77.44000000    -2.38000000    59.93000000
   C     76.97000000    -0.41000000    57.29000000
   C     76.25000000    -0.28000000    55.95000000
   O     76.88000000     0.01000000    54.91000000
   O     75.00000000    -0.38000000    55.95000000
   H     76.27000000    -3.22000000    57.93000000
   H     78.63000000    -1.60000000    57.00000000
   H     77.61000000     0.46000000    57.44000000
   H     76.18000000    -0.23000000    58.03000000
   N     79.17000000    -1.08000000    59.47000000
   C     79.75000000    -1.08000000    60.79000000
   C     80.24000000    -2.45000000    61.25000000
   O     80.49000000    -3.34000000    60.44000000
   H     79.63000000    -0.50000000    58.79000000
   H     79.05000000    -0.65000000    61.50000000
   H     80.57000000    -0.36000000    60.80000000
   N     80.42000000    -2.53000000    62.57000000
   C     80.97000000    -3.68000000    63.26000000
   C     82.49000000    -3.68000000    63.30000000
   O     83.15000000    -2.64000000    63.20000000
   C     80.14000000    -3.93000000    64.52000000
   C     80.31000000    -2.92000000    65.65000000
   O     78.77000000    -3.97000000    64.17000000
   H     80.30000000    -1.75000000    63.20000000
   H     80.75000000    -4.55000000    62.64000000
   H     80.52000000    -4.91000000    64.81000000
   H     78.66000000    -4.58000000    63.44000000
   H     79.51000000    -3.08000000    66.37000000
   H     81.32000000    -2.95000000    66.07000000
   H     80.13000000    -1.90000000    65.30000000
   N     83.13000000    -4.83000000    63.51000000
   C     84.55000000    -5.04000000    63.71000000
   C     85.49000000    -4.84000000    62.52000000
   O     86.69000000    -4.70000000    62.71000000
   C     84.83000000    -6.31000000    64.51000000
   C     84.52000000    -7.47000000    63.58000000
   C     84.08000000    -6.18000000    65.83000000
   C     84.65000000    -8.84000000    64.24000000
   H     82.55000000    -5.66000000    63.52000000
   H     84.71000000    -4.20000000    64.39000000
   H     85.88000000    -6.36000000    64.79000000
   H     85.31000000    -7.52000000    62.83000000
   H     83.54000000    -7.42000000    63.11000000
   H     84.20000000    -5.15000000    66.18000000
   H     83.00000000    -6.33000000    65.78000000
   H     84.39000000    -6.97000000    66.51000000
   H     85.59000000    -8.86000000    64.79000000
   H     83.90000000    -8.95000000    65.01000000
   H     84.56000000    -9.62000000    63.48000000
   N     84.96000000    -4.70000000    61.31000000
   C     85.58000000    -4.08000000    60.16000000
   C     86.54000000    -5.09000000    59.53000000
   O     86.13000000    -6.08000000    58.92000000
   C     84.62000000    -3.54000000    59.10000000
   C     83.54000000    -2.59000000    59.62000000
   O     85.35000000    -2.92000000    58.06000000
   H     84.09000000    -5.17000000    61.09000000
   H     86.09000000    -3.18000000    60.51000000
   H     84.08000000    -4.37000000    58.66000000
   H     84.79000000    -2.92000000    57.28000000
   H     83.98000000    -1.75000000    60.16000000
   H     83.03000000    -2.26000000    58.72000000
   H     82.96000000    -3.10000000    60.38000000
   N     87.84000000    -4.94000000    59.79000000
   C     88.79000000    -5.93000000    59.31000000
   C     88.75000000    -7.30000000    59.96000000
   O     89.19000000    -8.34000000    59.47000000
   C     90.18000000    -5.31000000    59.40000000
   C     91.29000000    -6.15000000    58.77000000
   O     90.49000000    -5.10000000    60.76000000
   H     88.12000000    -4.20000000    60.41000000
   H     88.53000000    -6.10000000    58.27000000
   H     90.12000000    -4.35000000    58.89000000
   H     90.02000000    -4.33000000    61.10000000
   H     90.98000000    -6.61000000    57.83000000
   H     92.03000000    -5.42000000    58.45000000
   H     91.67000000    -6.85000000    59.51000000
   N     88.31000000    -7.26000000    61.22000000
   C     88.41000000    -8.47000000    62.02000000
   C     87.54000000    -9.64000000    61.59000000
   O     86.41000000    -9.51000000    61.12000000
   C     88.44000000    -8.22000000    63.53000000
   C     89.61000000    -7.33000000    63.96000000
   C     91.04000000    -7.82000000    63.78000000
   C     91.50000000    -8.87000000    64.80000000
   N     91.83000000   -10.16000000    64.17000000
   H     88.03000000    -6.39000000    61.65000000
   H     89.41000000    -8.80000000    61.77000000
   H     88.49000000    -9.17000000    64.06000000
   H     87.48000000    -7.82000000    63.84000000
   H     89.48000000    -7.04000000    65.00000000
   H     89.65000000    -6.39000000    63.41000000
   H     91.76000000    -7.01000000    63.93000000
   H     91.20000000    -8.15000000    62.76000000
   H     90.69000000    -9.03000000    65.51000000
   H     92.40000000    -8.43000000    65.23000000
   H     91.07000000   -10.55000000    63.63000000
   H     92.69000000   -10.10000000    63.64000000
   H     91.97000000   -10.93000000    64.80000000
   N     88.08000000   -10.85000000    61.77000000
   C     87.43000000   -12.09000000    61.40000000
   C     88.30000000   -12.78000000    60.35000000
   O     89.52000000   -12.81000000    60.50000000
   C     87.24000000   -13.02000000    62.59000000
   C     85.97000000   -12.82000000    63.40000000
   C     85.70000000   -13.93000000    64.41000000
   O     86.61000000   -14.31000000    65.18000000
   O     84.65000000   -14.60000000    64.37000000
   H     89.04000000   -11.00000000    62.06000000
   H     86.41000000   -11.86000000    61.10000000
   H     88.13000000   -12.92000000    63.22000000
   H     87.23000000   -14.06000000    62.27000000
   H     85.10000000   -12.84000000    62.74000000
   H     86.08000000   -11.86000000    63.91000000
   N     87.75000000   -13.40000000    59.30000000
   C     86.40000000   -13.35000000    58.78000000
   H     85.77100000   -12.77300000    59.45800000
   H     86.40500000   -12.87600000    57.79800000
   H     86.00600000   -14.36200000    58.69300000
   H     88.37000000   -13.89000000    58.68000000
  Ca     74.88000000     0.10000000    53.18000000
   O     73.64000000     2.09000000    51.93000000
   H     73.44000000     2.33000000    51.03000000
   H     73.66000000     2.92000000    52.40000000
   O     76.46000000    -1.86600000    52.20000000
   H     76.29000000    -2.28600000    51.36000000
   H     76.67000000    -2.58600000    52.79000000
   O     77.05000000     1.72000000    52.83000000
   H     77.89000000     1.79000000    53.29000000
   H     76.91000000     2.59000000    52.46000000
   O     74.34000000     2.30000000    54.78000000
   H     74.06000000     2.10000000    55.68000000
   H     74.41000000     3.25000000    54.76000000
   O     73.48000000    -0.85600000    51.03000000
   H     73.44000000    -0.30600000    50.25000000
   H     73.12000000    -1.69600000    50.74000000
   O     72.25000000     0.21000000    53.97000000
   H     71.34000000     0.40000000    53.73000000
   H     72.18000000    -0.53000000    54.58000000

Ca 1.00



