%chk=loop4.holoCaM-CaMKII.run68.water1.chk
%nprocshared=20
%mem=10GB
%nosave
#b3lyp/svp scf=(tight,noincore,xqc) Test 
#IOP(5/87=12) Density=Current Pop=(MK,readradii) iop(6/33=2) iop(6/42=6)

loop4.holoCaM-CaMKII.run68.water1 

   -3  1 
   C     36.58000000    37.93000000     7.32000000
   C     37.51000000    37.09000000     8.18000000
   O     37.94000000    37.56000000     9.24000000
   H     35.68700000    38.18300000     7.89200000
   H     37.09000000    38.84500000     7.02000000
   H     36.29500000    37.36400000     6.43300000
   N     37.76000000    35.82000000     7.85000000
   C     38.61000000    34.94000000     8.62000000
   C     40.04000000    35.46000000     8.58000000
   O     40.54000000    35.98000000     7.58000000
   C     38.57000000    33.54000000     8.00000000
   C     39.47000000    32.54000000     8.71000000
   O     39.80000000    31.53000000     8.05000000
   O     39.78000000    32.80000000     9.89000000
   H     37.44000000    35.38000000     7.00000000
   H     38.30000000    34.77000000     9.65000000
   H     38.80000000    33.55000000     6.93000000
   H     37.56000000    33.15000000     8.11000000
   N     40.79000000    35.24000000     9.66000000
   C     42.19000000    35.56000000     9.85000000
   C     43.02000000    34.57000000    10.66000000
   O     44.24000000    34.70000000    10.69000000
   C     42.33000000    37.01000000    10.31000000
   C     41.62000000    37.21000000    11.64000000
   C     41.97000000    38.02000000     9.22000000
   C     42.23000000    38.38000000    12.41000000
   H     40.28000000    34.81000000    10.42000000
   H     42.69000000    35.51000000     8.89000000
   H     43.38000000    37.25000000    10.46000000
   H     41.78000000    36.30000000    12.21000000
   H     40.57000000    37.30000000    11.34000000
   H     42.37000000    37.75000000     8.24000000
   H     40.89000000    38.02000000     9.12000000
   H     42.42000000    39.00000000     9.41000000
   H     43.25000000    38.14000000    12.68000000
   H     42.22000000    39.33000000    11.87000000
   H     41.65000000    38.53000000    13.32000000
   N     42.46000000    33.59000000    11.36000000
   C     43.23000000    32.64000000    12.14000000
   C     43.57000000    31.39000000    11.34000000
   O     44.44000000    30.60000000    11.69000000
   C     42.41000000    32.50000000    13.41000000
   C     40.97000000    32.04000000    13.20000000
   O     40.76000000    31.09000000    12.42000000
   O     40.06000000    32.52000000    13.91000000
   H     41.45000000    33.58000000    11.34000000
   H     44.15000000    33.07000000    12.54000000
   H     42.37000000    33.34000000    14.10000000
   H     42.92000000    31.79000000    14.06000000
   N     42.96000000    31.20000000    10.17000000
   C     43.15000000    30.07000000     9.29000000
   C     42.47000000    28.76000000     9.66000000
   O     43.20000000    27.78000000     9.84000000
   H     42.17000000    31.78000000     9.91000000
   H     44.22000000    29.82000000     9.31000000
   H     42.91000000    30.36000000     8.27000000
   N     41.14000000    28.75000000     9.75000000
   C     40.22000000    27.66000000     9.97000000
   C     39.06000000    27.51000000     8.99000000
   O     38.20000000    26.66000000     9.20000000
   C     39.64000000    27.61000000    11.38000000
   C     38.74000000    28.79000000    11.74000000
   O     38.39000000    29.59000000    10.85000000
   O     38.46000000    28.98000000    12.94000000
   H     40.69000000    29.64000000     9.60000000
   H     40.83000000    26.76000000     9.86000000
   H     40.44000000    27.51000000    12.12000000
   H     39.11000000    26.70000000    11.64000000
   N     39.00000000    28.43000000     8.02000000
   C     37.96000000    28.48000000     7.02000000
   C     36.58000000    28.85000000     7.55000000
   O     35.60000000    28.62000000     6.85000000
   H     39.71000000    29.14000000     7.91000000
   H     38.01000000    27.55000000     6.45000000
   H     38.26000000    29.27000000     6.32000000
   N     36.47000000    29.45000000     8.73000000
   C     35.19000000    29.90000000     9.23000000
   C     35.34000000    31.34000000     9.70000000
   O     36.38000000    31.81000000    10.18000000
   C     34.48000000    29.05000000    10.28000000
   C     33.70000000    27.87000000     9.70000000
   C     32.81000000    27.10000000    10.67000000
   N     33.46000000    26.58000000    11.71000000
   O     31.60000000    26.99000000    10.53000000
   H     37.33000000    29.63000000     9.22000000
   H     34.52000000    29.99000000     8.38000000
   H     33.74000000    29.63000000    10.84000000
   H     35.17000000    28.61000000    10.99000000
   H     34.40000000    27.13000000     9.30000000
   H     33.07000000    28.29000000     8.92000000
   H     34.44000000    26.39000000    11.56000000
   H     33.06000000    25.91000000    12.36000000
   N     34.22000000    32.06000000     9.62000000
   C     34.11000000    33.42000000    10.10000000
   C     33.30000000    33.29000000    11.39000000
   O     32.23000000    32.69000000    11.42000000
   C     33.31000000    34.28000000     9.13000000
   C     33.28000000    35.70000000     9.68000000
   C     34.01000000    34.28000000     7.76000000
   H     33.36000000    31.54000000     9.46000000
   H     35.08000000    33.89000000    10.29000000
   H     32.26000000    34.05000000     8.96000000
   H     34.26000000    36.12000000     9.86000000
   H     32.67000000    36.31000000     9.02000000
   H     32.76000000    35.70000000    10.64000000
   H     33.89000000    33.29000000     7.32000000
   H     33.36000000    34.95000000     7.20000000
   H     35.03000000    34.61000000     7.91000000
   N     33.82000000    33.87000000    12.47000000
   C     33.14000000    33.87000000    13.75000000
   C     32.77000000    35.27000000    14.23000000
   O     33.11000000    36.18000000    13.49000000
   C     34.01000000    33.08000000    14.72000000
   C     34.96000000    34.04000000    15.43000000
   N     36.05000000    34.57000000    14.86000000
   O     34.70000000    34.37000000    16.59000000
   H     34.70000000    34.36000000    12.44000000
   H     32.18000000    33.35000000    13.76000000
   H     34.64000000    32.37000000    14.20000000
   H     33.37000000    32.53000000    15.41000000
   H     36.30000000    34.23000000    13.95000000
   H     36.67000000    35.07000000    15.47000000
   N     31.99000000    35.35000000    15.31000000
   C     31.53000000    36.61000000    15.86000000
   C     32.59000000    37.69000000    16.09000000
   O     32.41000000    38.85000000    15.74000000
   C     30.68000000    36.42000000    17.11000000
   C     29.89000000    37.67000000    17.44000000
   C     28.86000000    38.01000000    16.56000000
   C     30.22000000    38.41000000    18.58000000
   C     28.22000000    39.26000000    16.65000000
   C     29.52000000    39.63000000    18.65000000
   C     28.55000000    40.09000000    17.74000000
   O     27.91000000    41.29000000    17.88000000
   H     31.92000000    34.59000000    15.97000000
   H     30.91000000    37.05000000    15.09000000
   H     31.33000000    36.23000000    17.96000000
   H     29.97000000    35.60000000    17.00000000
   H     28.71000000    37.42000000    15.67000000
   H     30.89000000    38.07000000    19.35000000
   H     27.50000000    39.66000000    15.96000000
   H     29.73000000    40.26000000    19.50000000
   H     28.27000000    41.81000000    18.60000000
   N     33.81000000    37.31000000    16.48000000
   C     34.83000000    38.34000000    16.55000000
   C     35.27000000    38.84000000    15.18000000
   O     35.27000000    40.05000000    14.94000000
   C     35.98000000    37.72000000    17.34000000
   C     36.92000000    38.82000000    17.84000000
   C     38.22000000    38.14000000    18.23000000
   O     39.03000000    37.95000000    17.30000000
   O     38.36000000    37.86000000    19.44000000
   H     34.04000000    36.36000000    16.70000000
   H     34.40000000    39.15000000    17.14000000
   H     36.50000000    37.07000000    16.64000000
   H     35.59000000    37.19000000    18.21000000
   H     36.41000000    39.31000000    18.67000000
   H     37.00000000    39.59000000    17.07000000
   N     35.61000000    37.88000000    14.32000000
   C     35.89000000    38.18000000    12.93000000
   C     34.73000000    38.85000000    12.21000000
   O     35.05000000    39.59000000    11.28000000
   C     36.21000000    36.84000000    12.28000000
   C     37.60000000    36.36000000    12.68000000
   C     37.76000000    34.93000000    12.19000000
   O     38.90000000    34.53000000    11.87000000
   O     36.86000000    34.08000000    12.35000000
   H     35.53000000    36.94000000    14.68000000
   H     36.75000000    38.85000000    12.91000000
   H     36.19000000    37.06000000    11.21000000
   H     35.43000000    36.11000000    12.48000000
   H     37.74000000    36.36000000    13.77000000
   H     38.16000000    37.14000000    12.16000000
   N     33.46000000    38.77000000    12.62000000
   C     32.32000000    39.42000000    12.01000000
   H     31.51100000    39.49100000    12.73700000
   H     32.60300000    40.42100000    11.68400000
   H     31.98600000    38.83800000    11.15100000
   H     33.33000000    38.04000000    13.31000000
  Ca     38.43000000    31.97000000    11.85000000
   O     36.34000000    30.75000000    13.31000000
   H     36.52000000    29.82000000    13.18000000
   H     36.36000000    30.88000000    14.26000000

Ca 1.00



