%chk=loop3.holoCaM.run46.water3.chk
%nprocshared=20
%mem=10GB
%nosave
#b3lyp/svp scf=(tight,noincore,xqc) Test 
#IOP(5/87=12) Density=Current Pop=(MK,readradii) iop(6/33=2) iop(6/42=6)

loop3.holoCaM.run46.water3 

   0  1 
   C     71.96000000    49.56000000    32.15000000
   C     73.28000000    50.20000000    32.58000000
   O     73.75000000    49.73000000    33.62000000
   H     71.21400000    50.33900000    31.99200000
   H     72.10900000    49.00700000    31.22200000
   H     71.61500000    48.87900000    32.92800000
   N     73.79000000    51.25000000    31.94000000
   C     74.91000000    52.08000000    32.34000000
   C     74.41000000    53.22000000    33.23000000
   O     73.67000000    54.10000000    32.80000000
   C     75.54000000    52.59000000    31.05000000
   C     76.72000000    53.52000000    31.29000000
   O     77.34000000    54.09000000    30.36000000
   O     77.15000000    53.59000000    32.46000000
   H     73.32000000    51.51000000    31.09000000
   H     75.67000000    51.54000000    32.91000000
   H     74.74000000    53.13000000    30.55000000
   H     75.80000000    51.84000000    30.30000000
   N     74.78000000    53.14000000    34.51000000
   C     74.29000000    53.88000000    35.65000000
   C     74.40000000    55.38000000    35.40000000
   O     73.49000000    56.12000000    35.76000000
   C     75.01000000    53.52000000    36.95000000
   C     74.50000000    54.34000000    38.12000000
   C     75.05000000    53.86000000    39.46000000
   C     74.38000000    54.72000000    40.53000000
   N     75.21000000    54.68000000    41.75000000
   H     75.44000000    52.43000000    34.82000000
   H     73.23000000    53.64000000    35.80000000
   H     76.08000000    53.58000000    36.74000000
   H     74.73000000    52.48000000    37.13000000
   H     73.42000000    54.24000000    38.23000000
   H     74.86000000    55.37000000    38.08000000
   H     76.13000000    54.01000000    39.53000000
   H     74.94000000    52.78000000    39.56000000
   H     73.42000000    54.26000000    40.78000000
   H     74.29000000    55.77000000    40.27000000
   H     75.09000000    55.48000000    42.35000000
   H     75.09000000    53.80000000    42.24000000
   H     76.17000000    54.61000000    41.45000000
   N     75.43000000    55.83000000    34.70000000
   C     75.89000000    57.20000000    34.58000000
   C     75.99000000    57.60000000    33.12000000
   O     75.95000000    58.76000000    32.70000000
   C     77.18000000    57.49000000    35.36000000
   C     78.35000000    56.56000000    35.06000000
   O     78.22000000    55.44000000    34.52000000
   O     79.47000000    56.92000000    35.50000000
   H     75.99000000    55.10000000    34.27000000
   H     75.14000000    57.85000000    35.03000000
   H     77.10000000    57.35000000    36.44000000
   H     77.60000000    58.47000000    35.14000000
   N     75.96000000    56.59000000    32.25000000
   C     75.94000000    56.76000000    30.81000000
   C     77.29000000    57.13000000    30.22000000
   O     77.28000000    57.87000000    29.24000000
   H     75.95000000    55.67000000    32.66000000
   H     75.18000000    57.49000000    30.51000000
   H     75.60000000    55.83000000    30.34000000
   N     78.40000000    56.71000000    30.84000000
   C     79.75000000    57.04000000    30.42000000
   C     80.23000000    56.25000000    29.22000000
   O     81.33000000    56.58000000    28.80000000
   C     80.58000000    56.82000000    31.68000000
   C     81.00000000    55.38000000    31.91000000
   N     82.29000000    55.09000000    32.06000000
   O     80.22000000    54.44000000    32.03000000
   H     78.30000000    56.06000000    31.61000000
   H     79.86000000    58.08000000    30.11000000
   H     80.09000000    57.23000000    32.56000000
   H     81.47000000    57.43000000    31.53000000
   H     82.87000000    55.89000000    32.27000000
   H     82.62000000    54.18000000    32.34000000
   N     79.51000000    55.22000000    28.76000000
   C     79.88000000    54.31000000    27.70000000
   C     80.32000000    52.92000000    28.16000000
   O     80.90000000    52.15000000    27.40000000
   H     78.71000000    54.95000000    29.32000000
   H     80.71000000    54.70000000    27.11000000
   H     78.97000000    54.15000000    27.12000000
   N     80.05000000    52.52000000    29.40000000
   C     80.69000000    51.38000000    30.02000000
   C     79.84000000    50.76000000    31.12000000
   O     79.31000000    51.54000000    31.91000000
   C     82.05000000    51.76000000    30.61000000
   C     83.08000000    52.14000000    29.58000000
   C     83.30000000    53.51000000    29.39000000
   C     83.87000000    51.19000000    28.90000000
   C     84.39000000    53.87000000    28.59000000
   C     84.98000000    51.54000000    28.13000000
   C     85.21000000    52.92000000    27.95000000
   O     86.19000000    53.42000000    27.14000000
   H     79.57000000    53.15000000    30.02000000
   H     80.89000000    50.58000000    29.31000000
   H     82.35000000    50.93000000    31.25000000
   H     81.83000000    52.55000000    31.32000000
   H     82.72000000    54.26000000    29.89000000
   H     83.60000000    50.16000000    29.08000000
   H     84.68000000    54.90000000    28.47000000
   H     85.55000000    50.83000000    27.55000000
   H     86.76000000    52.72000000    26.83000000
   N     79.72000000    49.43000000    31.09000000
   C     79.00000000    48.71000000    32.12000000
   C     79.96000000    47.76000000    32.80000000
   O     80.66000000    46.96000000    32.19000000
   C     77.81000000    48.06000000    31.42000000
   C     76.68000000    49.04000000    31.16000000
   C     77.27000000    46.91000000    32.27000000
   C     75.45000000    48.44000000    30.47000000
   H     80.14000000    48.91000000    30.33000000
   H     78.64000000    49.38000000    32.90000000
   H     78.16000000    47.61000000    30.49000000
   H     77.13000000    49.74000000    30.46000000
   H     76.25000000    49.54000000    32.03000000
   H     76.69000000    46.17000000    31.71000000
   H     78.00000000    46.34000000    32.84000000
   H     76.62000000    47.45000000    32.95000000
   H     75.74000000    48.09000000    29.48000000
   H     75.05000000    47.55000000    30.95000000
   H     74.73000000    49.24000000    30.30000000
   N     80.10000000    48.03000000    34.10000000
   C     80.93000000    47.27000000    35.03000000
   C     80.23000000    46.04000000    35.60000000
   O     79.07000000    45.77000000    35.31000000
   C     81.43000000    48.29000000    36.05000000
   O     80.43000000    48.94000000    36.81000000
   H     79.49000000    48.73000000    34.49000000
   H     81.71000000    46.85000000    34.40000000
   H     82.09000000    49.01000000    35.57000000
   H     82.04000000    47.61000000    36.64000000
   H     79.87000000    49.44000000    36.22000000
   N     80.88000000    45.17000000    36.38000000
   C     80.25000000    44.11000000    37.14000000
   C     79.03000000    44.46000000    37.97000000
   O     78.11000000    43.65000000    37.85000000
   C     81.34000000    43.56000000    38.06000000
   H     81.86000000    45.33000000    36.55000000
   H     79.97000000    43.26000000    36.52000000
   H     81.68000000    44.42000000    38.64000000
   H     80.90000000    42.84000000    38.75000000
   H     82.13000000    43.10000000    37.47000000
   N     79.00000000    45.59000000    38.69000000
   C     77.87000000    45.91000000    39.53000000
   C     76.75000000    46.56000000    38.72000000
   O     75.64000000    46.73000000    39.21000000
   C     78.26000000    46.79000000    40.72000000
   H     79.83000000    46.17000000    38.70000000
   H     77.55000000    44.99000000    40.02000000
   H     78.94000000    46.23000000    41.36000000
   H     78.70000000    47.73000000    40.41000000
   H     77.42000000    47.07000000    41.36000000
   N     76.96000000    46.88000000    37.44000000
   C     75.97000000    47.27000000    36.45000000
   C     75.53000000    46.10000000    35.57000000
   O     74.36000000    46.12000000    35.18000000
   C     76.56000000    48.43000000    35.66000000
   C     76.95000000    49.70000000    36.43000000
   C     77.59000000    50.71000000    35.50000000
   O     77.02000000    51.69000000    34.99000000
   O     78.82000000    50.59000000    35.31000000
   H     77.80000000    46.58000000    36.97000000
   H     75.09000000    47.52000000    37.04000000
   H     75.79000000    48.58000000    34.91000000
   H     77.43000000    48.04000000    35.13000000
   H     77.63000000    49.21000000    37.13000000
   H     76.15000000    50.13000000    37.03000000
   N     76.41000000    45.11000000    35.44000000
   C     76.00000000    43.83000000    34.89000000
   H     75.08000000    43.95800000    34.32000000
   H     76.78200000    43.44800000    34.23400000
   H     75.82900000    43.12300000    35.70200000
   H     77.38000000    45.33000000    35.61000000
  Ca     79.09000000    53.08000000    34.09000000
   O     78.97000000    53.44000000    36.84000000
   H     79.77000000    53.96000000    36.91000000
   H     79.03000000    52.81000000    37.56000000
   O     81.10000000    54.66000000    35.54000000
   H     80.66000000    55.50000000    35.50000000
   H     82.02000000    54.87000000    35.73000000
   O     81.70000000    51.81000000    34.21000000
   H     82.43000000    51.24000000    33.98000000
   H     82.09000000    52.49000000    34.77000000

Ca 1.00



