%chk=loop2.apoCaM-CA-Ng.Init295.run34.water4.chk
%nprocshared=20
%mem=10GB
%nosave
#b3lyp/svp scf=(tight,noincore,xqc) Test 
#IOP(5/87=12) Density=Current Pop=(MK,readradii) iop(6/33=2) iop(6/42=6)

loop2.apoCaM-CA-Ng.Init295.run34.water4 

   -2  1 
   C     93.15000000    72.85000000    53.66000000
   C     93.91000000    73.35000000    52.44000000
   O     93.52000000    74.42000000    51.98000000
   H     92.15500000    72.52200000    53.35800000
   H     93.68800000    72.01400000    54.10600000
   H     93.06100000    73.65600000    54.38900000
   N     94.99000000    72.77000000    51.92000000
   C     95.74000000    73.52000000    50.93000000
   C     96.49000000    74.72000000    51.50000000
   O     97.52000000    74.53000000    52.14000000
   C     96.59000000    72.53000000    50.13000000
   C     95.81000000    71.56000000    49.27000000
   O     96.47000000    70.75000000    48.58000000
   O     94.56000000    71.57000000    49.18000000
   H     95.45000000    72.14000000    52.56000000
   H     94.99000000    73.92000000    50.26000000
   H     97.20000000    71.94000000    50.82000000
   H     97.31000000    73.10000000    49.54000000
   N     95.95000000    75.88000000    51.12000000
   C     96.65000000    77.12000000    51.33000000
   C     96.18000000    77.79000000    52.62000000
   O     94.99000000    77.69000000    52.90000000
   C     96.51000000    77.97000000    50.08000000
   H     95.02000000    75.93000000    50.71000000
   H     97.72000000    76.92000000    51.39000000
   H     96.98000000    78.94000000    50.24000000
   H     97.01000000    77.45000000    49.27000000
   H     95.51000000    78.07000000    49.65000000
   N     97.01000000    78.54000000    53.35000000
   C     98.41000000    78.86000000    53.13000000
   C     99.32000000    78.03000000    54.02000000
   O     98.98000000    77.29000000    54.94000000
   C     98.63000000    80.36000000    53.34000000
   C     97.69000000    81.23000000    52.52000000
   O     97.79000000    81.32000000    51.28000000
   O     96.77000000    81.84000000    53.11000000
   H     96.58000000    78.94000000    54.17000000
   H     98.58000000    78.55000000    52.10000000
   H     99.63000000    80.65000000    53.03000000
   H     98.42000000    80.66000000    54.36000000
   N    100.61000000    77.99000000    53.68000000
   C    101.70000000    77.28000000    54.32000000
   C    101.71000000    75.82000000    53.90000000
   O    101.54000000    75.44000000    52.75000000
   H    100.88000000    78.55000000    52.88000000
   H    101.55000000    77.37000000    55.39000000
   H    102.67000000    77.72000000    54.07000000
   N    102.08000000    74.87000000    54.77000000
   C    102.68000000    74.98000000    56.09000000
   C    101.66000000    75.16000000    57.20000000
   O    102.08000000    75.35000000    58.34000000
   C    103.42000000    73.67000000    56.36000000
   C    104.31000000    73.09000000    55.28000000
   N    105.63000000    73.10000000    55.53000000
   O    103.87000000    72.43000000    54.34000000
   H    101.98000000    73.94000000    54.40000000
   H    103.43000000    75.77000000    56.14000000
   H    102.74000000    72.86000000    56.61000000
   H    103.96000000    73.72000000    57.30000000
   H    106.03000000    73.57000000    56.32000000
   H    106.18000000    72.51000000    54.92000000
   N    100.35000000    75.27000000    56.93000000
   C     99.40000000    75.26000000    58.02000000
   C     99.07000000    76.66000000    58.53000000
   O     98.61000000    76.75000000    59.67000000
   H    100.08000000    74.91000000    56.03000000
   H     99.75000000    74.67000000    58.87000000
   H     98.48000000    74.80000000    57.66000000
   N     99.22000000    77.70000000    57.72000000
   C     99.08000000    79.09000000    58.11000000
   C     97.62000000    79.49000000    57.96000000
   O     97.36000000    80.27000000    57.04000000
   C    100.05000000    80.02000000    57.39000000
   C    100.18000000    81.35000000    58.13000000
   O    101.30000000    79.38000000    57.55000000
   H     99.48000000    77.57000000    56.75000000
   H     99.27000000    79.16000000    59.19000000
   H     99.77000000    80.18000000    56.35000000
   H    102.00000000    79.89000000    57.15000000
   H     99.23000000    81.87000000    58.03000000
   H    100.40000000    81.22000000    59.19000000
   H    101.05000000    81.83000000    57.67000000
   N     96.72000000    79.03000000    58.83000000
   C     95.28000000    79.12000000    58.67000000
   C     94.66000000    80.10000000    59.65000000
   O     95.31000000    80.54000000    60.60000000
   C     94.79000000    77.69000000    58.86000000
   C     95.42000000    76.64000000    57.94000000
   C     94.93000000    77.05000000    60.24000000
   C     95.42000000    77.05000000    56.47000000
   H     97.08000000    78.34000000    59.47000000
   H     94.98000000    79.54000000    57.71000000
   H     93.72000000    77.77000000    58.65000000
   H     94.96000000    75.65000000    58.06000000
   H     96.40000000    76.32000000    58.27000000
   H     95.98000000    77.01000000    60.51000000
   H     94.47000000    77.72000000    60.96000000
   H     94.41000000    76.10000000    60.32000000
   H     95.89000000    76.24000000    55.92000000
   H     94.44000000    77.25000000    56.06000000
   H     96.06000000    77.93000000    56.35000000
   N     93.40000000    80.48000000    59.44000000
   C     92.62000000    81.47000000    60.15000000
   C     91.20000000    80.98000000    60.35000000
   O     90.49000000    80.48000000    59.47000000
   C     92.69000000    82.77000000    59.34000000
   C     92.62000000    82.57000000    57.83000000
   O     93.64000000    82.44000000    57.12000000
   O     91.55000000    82.58000000    57.19000000
   H     92.96000000    80.06000000    58.63000000
   H     92.97000000    81.72000000    61.15000000
   H     93.50000000    83.44000000    59.63000000
   H     91.88000000    83.44000000    59.61000000
   N     90.67000000    81.06000000    61.57000000
   C     89.25000000    80.98000000    61.83000000
   C     88.79000000    79.55000000    61.58000000
   O     89.24000000    78.64000000    62.28000000
   C     88.89000000    81.38000000    63.26000000
   C     87.40000000    81.21000000    63.48000000
   C     86.86000000    80.02000000    63.98000000
   C     86.49000000    82.12000000    62.93000000
   C     85.48000000    79.81000000    64.01000000
   C     85.10000000    81.97000000    62.96000000
   C     84.60000000    80.78000000    63.50000000
   H     91.27000000    81.33000000    62.34000000
   H     88.74000000    81.65000000    61.15000000
   H     89.20000000    82.42000000    63.38000000
   H     89.44000000    80.84000000    64.02000000
   H     87.51000000    79.26000000    64.38000000
   H     86.82000000    83.03000000    62.45000000
   H     85.10000000    78.91000000    64.46000000
   H     84.48000000    82.81000000    62.70000000
   H     83.54000000    80.61000000    63.65000000
   N     87.85000000    79.41000000    60.64000000
   C     87.09000000    78.19000000    60.45000000
   C     87.89000000    77.03000000    59.86000000
   O     87.47000000    75.88000000    59.82000000
   C     85.89000000    78.56000000    59.60000000
   C     86.34000000    79.77000000    58.79000000
   C     87.32000000    80.43000000    59.75000000
   H     86.68000000    77.85000000    61.40000000
   H     85.64000000    77.66000000    59.02000000
   H     85.05000000    78.83000000    60.24000000
   H     86.95000000    79.36000000    57.99000000
   H     85.49000000    80.42000000    58.57000000
   H     88.16000000    80.87000000    59.22000000
   H     86.85000000    81.23000000    60.32000000
   N     89.13000000    77.27000000    59.44000000
   C     89.95000000    76.31000000    58.71000000
   C     90.41000000    75.09000000    59.49000000
   O     90.18000000    73.94000000    59.11000000
   C     91.04000000    77.05000000    57.94000000
   C     90.55000000    78.02000000    56.87000000
   C     91.67000000    78.89000000    56.31000000
   O     92.29000000    79.69000000    57.04000000
   O     91.89000000    78.94000000    55.08000000
   H     89.43000000    78.23000000    59.44000000
   H     89.42000000    75.88000000    57.87000000
   H     91.67000000    76.30000000    57.47000000
   H     91.65000000    77.53000000    58.71000000
   H     89.83000000    78.72000000    57.29000000
   H     90.03000000    77.49000000    56.07000000
   N     90.85000000    75.34000000    60.72000000
   C     91.16000000    74.33000000    61.72000000
   H     92.01500000    74.65600000    62.31200000
   H     90.29900000    74.18900000    62.37400000
   H     91.39900000    73.38900000    61.22500000
   H     90.88000000    76.33000000    60.90000000
  Ca     92.73000000    81.36000000    55.01000000
   O     93.66000000    80.19000000    52.93000000
   H     93.79000000    80.67000000    52.12000000
   H     94.05000000    79.33000000    52.76000000
   O     93.08000000    83.72000000    54.04000000
   H     93.66000000    84.41000000    54.37000000
   H     92.30000000    84.19000000    53.75000000
   O     95.49000000    80.99000000    55.13000000
   H     96.11000000    80.72000000    55.81000000
   H     96.03000000    81.41000000    54.46000000
   O     90.70000000    81.45000000    53.34000000
   H     90.93000000    81.59000000    52.42000000
   H     89.79000000    81.17000000    53.31000000

Ca 1.00



