%chk=loop2.holoCaM.run68.water1.chk
%nprocshared=20
%mem=10GB
%nosave
#b3lyp/svp scf=(tight,noincore,xqc) Test 
#IOP(5/87=12) Density=Current Pop=(MK,readradii) iop(6/33=2) iop(6/42=6)

loop2.holoCaM.run68.water1 

   -2  1 
   C     55.78000000    66.58000000     9.40000000
   C     54.46000000    66.36000000    10.12000000
   O     54.51000000    65.72000000    11.17000000
   H     56.56200000    66.00200000     9.89200000
   H     55.68800000    66.25600000     8.36300000
   H     56.03800000    67.63900000     9.42900000
   N     53.28000000    66.68000000     9.60000000
   C     51.94000000    66.30000000    10.01000000
   C     51.79000000    64.84000000    10.41000000
   O     51.71000000    63.90000000     9.62000000
   C     50.94000000    66.78000000     8.97000000
   C     49.49000000    66.56000000     9.39000000
   O     48.59000000    66.65000000     8.54000000
   O     49.26000000    66.32000000    10.60000000
   H     53.23000000    67.24000000     8.76000000
   H     51.60000000    66.92000000    10.84000000
   H     51.06000000    66.21000000     8.05000000
   H     51.06000000    67.86000000     8.82000000
   N     51.56000000    64.63000000    11.71000000
   C     51.37000000    63.35000000    12.34000000
   C     49.95000000    62.81000000    12.34000000
   O     49.76000000    61.67000000    12.75000000
   C     51.92000000    63.44000000    13.77000000
   H     51.56000000    65.45000000    12.30000000
   H     52.00000000    62.63000000    11.81000000
   H     52.81000000    64.07000000    13.72000000
   H     51.25000000    63.98000000    14.44000000
   H     52.16000000    62.49000000    14.22000000
   N     48.97000000    63.61000000    11.91000000
   C     47.57000000    63.37000000    12.19000000
   C     46.72000000    63.42000000    10.93000000
   O     45.56000000    63.00000000    10.96000000
   C     47.10000000    64.27000000    13.33000000
   C     47.57000000    65.70000000    13.11000000
   O     47.04000000    66.33000000    12.17000000
   O     48.34000000    66.36000000    13.85000000
   H     49.22000000    64.48000000    11.46000000
   H     47.42000000    62.41000000    12.67000000
   H     47.60000000    63.96000000    14.25000000
   H     46.01000000    64.21000000    13.39000000
   N     47.32000000    63.91000000     9.85000000
   C     46.81000000    63.72000000     8.50000000
   C     45.56000000    64.55000000     8.24000000
   O     44.53000000    64.01000000     7.84000000
   H     48.20000000    64.39000000    10.01000000
   H     46.57000000    62.67000000     8.35000000
   H     47.66000000    63.94000000     7.86000000
   N     45.74000000    65.85000000     8.48000000
   C     44.69000000    66.84000000     8.40000000
   C     44.99000000    67.81000000     7.26000000
   O     44.08000000    68.54000000     6.88000000
   C     44.56000000    67.57000000     9.73000000
   C     43.77000000    66.77000000    10.76000000
   N     44.45000000    66.01000000    11.62000000
   O     42.54000000    66.85000000    10.84000000
   H     46.60000000    66.11000000     8.94000000
   H     43.73000000    66.36000000     8.19000000
   H     44.16000000    68.56000000     9.51000000
   H     45.58000000    67.72000000    10.09000000
   H     45.45000000    66.09000000    11.73000000
   H     43.89000000    65.52000000    12.30000000
   N     46.20000000    67.81000000     6.70000000
   C     46.75000000    68.78000000     5.78000000
   C     47.30000000    70.10000000     6.31000000
   O     47.50000000    71.08000000     5.60000000
   H     46.89000000    67.28000000     7.22000000
   H     45.99000000    68.98000000     5.02000000
   H     47.51000000    68.21000000     5.24000000
   N     47.49000000    70.15000000     7.63000000
   C     47.77000000    71.30000000     8.46000000
   C     48.88000000    71.07000000     9.48000000
   O     49.07000000    69.98000000    10.02000000
   C     46.53000000    71.95000000     9.06000000
   C     45.70000000    72.75000000     8.06000000
   O     45.67000000    70.97000000     9.59000000
   H     47.34000000    69.37000000     8.27000000
   H     48.16000000    72.11000000     7.83000000
   H     46.84000000    72.54000000     9.92000000
   H     44.81000000    71.39000000     9.67000000
   H     44.86000000    73.27000000     8.52000000
   H     46.31000000    73.45000000     7.49000000
   H     45.32000000    72.02000000     7.34000000
   N     49.56000000    72.18000000     9.77000000
   C     50.63000000    72.24000000    10.74000000
   C     50.06000000    72.78000000    12.05000000
   O     49.32000000    73.75000000    12.06000000
   C     51.77000000    73.14000000    10.27000000
   C     52.30000000    72.56000000     8.96000000
   C     52.85000000    73.27000000    11.35000000
   C     52.61000000    71.06000000     8.99000000
   H     49.28000000    73.03000000     9.30000000
   H     50.93000000    71.21000000    10.97000000
   H     51.34000000    74.12000000    10.08000000
   H     53.28000000    73.01000000     8.82000000
   H     51.73000000    72.91000000     8.10000000
   H     52.49000000    73.80000000    12.23000000
   H     53.14000000    72.30000000    11.73000000
   H     53.71000000    73.76000000    10.90000000
   H     52.96000000    70.82000000     9.99000000
   H     51.71000000    70.48000000     8.79000000
   H     53.38000000    70.94000000     8.23000000
   N     50.44000000    72.23000000    13.21000000
   C     50.25000000    72.68000000    14.57000000
   C     51.55000000    73.20000000    15.18000000
   O     52.60000000    73.06000000    14.56000000
   C     49.65000000    71.56000000    15.42000000
   C     48.42000000    70.85000000    14.88000000
   O     48.58000000    69.84000000    14.15000000
   O     47.32000000    71.28000000    15.28000000
   H     51.06000000    71.44000000    13.18000000
   H     49.50000000    73.46000000    14.54000000
   H     49.49000000    71.88000000    16.45000000
   H     50.44000000    70.81000000    15.54000000
   N     51.60000000    73.74000000    16.40000000
   C     52.81000000    74.35000000    16.91000000
   C     53.99000000    73.39000000    17.07000000
   O     55.09000000    73.70000000    16.63000000
   C     52.60000000    75.24000000    18.13000000
   C     53.80000000    76.04000000    18.58000000
   C     54.50000000    76.87000000    17.70000000
   C     54.28000000    75.87000000    19.89000000
   C     55.73000000    77.41000000    18.09000000
   C     55.42000000    76.55000000    20.33000000
   C     56.22000000    77.22000000    19.39000000
   H     50.71000000    73.94000000    16.83000000
   H     53.07000000    75.02000000    16.09000000
   H     52.21000000    74.66000000    18.97000000
   H     51.87000000    76.00000000    17.87000000
   H     54.15000000    76.98000000    16.69000000
   H     53.78000000    75.16000000    20.53000000
   H     56.33000000    77.88000000    17.32000000
   H     55.77000000    76.39000000    21.34000000
   H     57.19000000    77.59000000    19.67000000
   N     53.86000000    72.23000000    17.72000000
   C     54.94000000    71.27000000    17.83000000
   C     55.40000000    70.89000000    16.43000000
   O     56.59000000    70.61000000    16.26000000
   C     54.42000000    70.06000000    18.60000000
   C     53.26000000    70.65000000    19.39000000
   C     52.71000000    71.57000000    18.30000000
   H     55.82000000    71.69000000    18.30000000
   H     54.05000000    69.25000000    17.98000000
   H     55.19000000    69.72000000    19.30000000
   H     52.47000000    69.94000000    19.61000000
   H     53.63000000    71.15000000    20.28000000
   H     52.10000000    70.95000000    17.64000000
   H     51.98000000    72.26000000    18.73000000
   N     54.54000000    70.70000000    15.43000000
   C     54.93000000    70.36000000    14.08000000
   C     55.60000000    71.54000000    13.39000000
   O     56.42000000    71.29000000    12.51000000
   C     53.69000000    69.85000000    13.36000000
   C     52.96000000    68.60000000    13.86000000
   C     51.69000000    68.24000000    13.09000000
   O     51.12000000    69.07000000    12.36000000
   O     51.17000000    67.12000000    13.29000000
   H     53.57000000    70.94000000    15.59000000
   H     55.61000000    69.54000000    14.30000000
   H     53.94000000    69.78000000    12.30000000
   H     52.91000000    70.61000000    13.45000000
   H     52.78000000    68.77000000    14.92000000
   H     53.60000000    67.73000000    13.85000000
   N     55.22000000    72.78000000    13.71000000
   C     55.87000000    74.00000000    13.28000000
   H     56.84800000    73.76200000    12.86100000
   H     55.26000000    74.48900000    12.52100000
   H     55.99300000    74.66700000    14.13300000
   H     54.42000000    72.88000000    14.32000000
  Ca     48.77000000    68.27000000    12.14000000
   O     46.47000000    69.82000000    11.90000000
   H     45.98000000    70.28000000    12.57000000
   H     46.29000000    70.30000000    11.09000000

Ca 1.00



