%chk=loop2.apoCaM-CA-Ng.Init293.run63.water6.chk
%nprocshared=20
%mem=10GB
%nosave
#b3lyp/svp scf=(tight,noincore,xqc) Test 
#IOP(5/87=12) Density=Current Pop=(MK,readradii) iop(6/33=2) iop(6/42=6)

loop2.apoCaM-CA-Ng.Init293.run63.water6 

   -2  1 
   C     85.34000000    91.53000000    50.61000000
   C     86.23000000    91.06000000    51.75000000
   O     85.87000000    91.18000000    52.92000000
   H     84.45100000    92.01000000    51.01800000
   H     85.88600000    92.24300000    49.99300000
   H     85.04400000    90.67500000    50.00300000
   N     87.54000000    90.86000000    51.54000000
   C     88.51000000    90.65000000    52.59000000
   C     88.73000000    91.87000000    53.47000000
   O     88.79000000    91.69000000    54.69000000
   C     89.81000000    90.17000000    51.97000000
   C     90.83000000    89.90000000    53.07000000
   O     91.62000000    90.79000000    53.46000000
   O     90.91000000    88.72000000    53.47000000
   H     87.90000000    90.93000000    50.60000000
   H     88.23000000    89.82000000    53.24000000
   H     90.12000000    90.93000000    51.25000000
   H     89.51000000    89.25000000    51.47000000
   N     88.97000000    93.05000000    52.89000000
   C     89.00000000    94.28000000    53.65000000
   C     87.85000000    94.51000000    54.62000000
   O     87.97000000    95.36000000    55.50000000
   C     90.43000000    94.46000000    54.14000000
   H     89.16000000    93.12000000    51.90000000
   H     88.86000000    95.13000000    52.99000000
   H     90.78000000    93.65000000    54.79000000
   H     91.11000000    94.53000000    53.28000000
   H     90.55000000    95.41000000    54.67000000
   N     86.71000000    93.85000000    54.42000000
   C     85.53000000    93.88000000    55.26000000
   C     85.72000000    93.58000000    56.74000000
   O     85.01000000    94.08000000    57.62000000
   C     84.55000000    95.01000000    54.96000000
   C     84.12000000    95.29000000    53.53000000
   O     84.28000000    94.46000000    52.61000000
   O     83.50000000    96.34000000    53.24000000
   H     86.78000000    93.20000000    53.65000000
   H     84.95000000    93.01000000    54.93000000
   H     84.97000000    95.96000000    55.27000000
   H     83.68000000    94.66000000    55.52000000
   N     86.79000000    92.82000000    57.00000000
   C     87.29000000    92.30000000    58.25000000
   C     86.30000000    91.51000000    59.10000000
   O     85.40000000    90.86000000    58.58000000
   H     87.24000000    92.39000000    56.21000000
   H     87.63000000    93.11000000    58.90000000
   H     88.11000000    91.65000000    57.94000000
   N     86.54000000    91.52000000    60.42000000
   C     85.77000000    90.86000000    61.45000000
   C     85.37000000    89.45000000    61.06000000
   O     84.30000000    88.93000000    61.36000000
   C     84.64000000    91.82000000    61.78000000
   C     83.92000000    91.65000000    63.11000000
   N     83.39000000    90.46000000    63.39000000
   O     83.91000000    92.59000000    63.91000000
   H     87.35000000    92.02000000    60.76000000
   H     86.47000000    90.71000000    62.28000000
   H     83.96000000    91.73000000    60.94000000
   H     84.99000000    92.85000000    61.88000000
   H     83.43000000    89.83000000    62.60000000
   H     82.69000000    90.39000000    64.13000000
   N     86.26000000    88.72000000    60.37000000
   C     86.10000000    87.34000000    59.98000000
   C     85.19000000    87.05000000    58.79000000
   O     84.95000000    85.89000000    58.48000000
   H     87.17000000    89.11000000    60.15000000
   H     85.86000000    86.67000000    60.80000000
   H     87.10000000    87.10000000    59.64000000
   N     84.68000000    88.14000000    58.20000000
   C     84.02000000    88.18000000    56.91000000
   C     82.52000000    88.43000000    56.94000000
   O     82.07000000    89.32000000    57.66000000
   C     84.62000000    89.19000000    55.93000000
   C     86.14000000    89.20000000    55.88000000
   O     84.15000000    89.00000000    54.62000000
   H     85.03000000    89.06000000    58.43000000
   H     84.31000000    87.23000000    56.46000000
   H     84.39000000    90.20000000    56.30000000
   H     84.60000000    89.67000000    54.10000000
   H     86.50000000    89.08000000    56.90000000
   H     86.46000000    88.29000000    55.36000000
   H     86.50000000    90.07000000    55.34000000
   N     81.70000000    87.74000000    56.14000000
   C     80.26000000    87.85000000    56.01000000
   C     79.73000000    89.17000000    55.49000000
   O     80.29000000    89.81000000    54.60000000
   C     79.63000000    86.62000000    55.35000000
   C     80.26000000    86.50000000    53.97000000
   C     79.83000000    85.40000000    56.24000000
   C     79.69000000    85.40000000    53.08000000
   H     82.08000000    86.92000000    55.68000000
   H     79.94000000    87.78000000    57.05000000
   H     78.56000000    86.85000000    55.31000000
   H     81.31000000    86.26000000    54.09000000
   H     80.18000000    87.48000000    53.51000000
   H     80.84000000    85.28000000    56.64000000
   H     79.25000000    85.44000000    57.17000000
   H     79.57000000    84.48000000    55.72000000
   H     80.24000000    85.36000000    52.14000000
   H     79.80000000    84.45000000    53.60000000
   H     78.64000000    85.62000000    52.90000000
   N     78.67000000    89.62000000    56.16000000
   C     78.30000000    91.01000000    56.30000000
   C     77.87000000    91.36000000    57.72000000
   O     76.80000000    91.00000000    58.21000000
   C     77.25000000    91.30000000    55.24000000
   C     76.48000000    92.60000000    55.35000000
   O     75.23000000    92.68000000    55.29000000
   O     77.20000000    93.62000000    55.36000000
   H     78.09000000    88.94000000    56.63000000
   H     79.21000000    91.58000000    56.09000000
   H     76.48000000    90.53000000    55.26000000
   H     77.81000000    91.27000000    54.30000000
   N     78.81000000    91.91000000    58.50000000
   C     78.68000000    92.30000000    59.89000000
   C     78.51000000    91.25000000    60.98000000
   O     77.87000000    91.64000000    61.95000000
   C     79.85000000    93.25000000    60.12000000
   C     79.98000000    93.88000000    61.49000000
   C     80.79000000    93.24000000    62.44000000
   C     79.39000000    95.13000000    61.70000000
   C     80.93000000    93.87000000    63.68000000
   C     79.65000000    95.79000000    62.91000000
   C     80.29000000    95.09000000    63.94000000
   H     79.63000000    92.28000000    58.05000000
   H     77.85000000    93.01000000    59.97000000
   H     79.94000000    94.13000000    59.49000000
   H     80.76000000    92.67000000    59.95000000
   H     81.16000000    92.24000000    62.26000000
   H     78.71000000    95.66000000    61.05000000
   H     81.43000000    93.32000000    64.46000000
   H     79.19000000    96.75000000    63.06000000
   H     80.50000000    95.52000000    64.91000000
   N     79.04000000    90.02000000    61.05000000
   C     79.74000000    89.30000000    60.01000000
   C     78.95000000    88.09000000    59.51000000
   O     79.42000000    86.95000000    59.51000000
   C     81.04000000    88.95000000    60.73000000
   C     80.58000000    88.61000000    62.14000000
   C     79.35000000    89.48000000    62.36000000
   H     80.13000000    89.91000000    59.20000000
   H     81.58000000    88.12000000    60.28000000
   H     81.69000000    89.82000000    60.81000000
   H     80.42000000    87.55000000    62.33000000
   H     81.36000000    88.86000000    62.87000000
   H     78.56000000    88.85000000    62.77000000
   H     79.64000000    90.24000000    63.09000000
   N     77.68000000    88.30000000    59.17000000
   C     76.66000000    87.27000000    59.10000000
   C     76.47000000    86.77000000    57.68000000
   O     76.75000000    87.46000000    56.70000000
   C     75.29000000    87.73000000    59.58000000
   C     75.28000000    88.30000000    61.00000000
   C     73.88000000    88.88000000    61.19000000
   O     73.06000000    88.04000000    61.60000000
   O     73.53000000    90.07000000    61.01000000
   H     77.31000000    89.24000000    59.13000000
   H     77.00000000    86.41000000    59.68000000
   H     74.64000000    86.86000000    59.59000000
   H     74.92000000    88.51000000    58.92000000
   H     76.01000000    89.10000000    61.13000000
   H     75.54000000    87.51000000    61.71000000
   N     76.03000000    85.52000000    57.58000000
   C     75.73000000    84.77000000    56.37000000
   H     74.90300000    85.24600000    55.84400000
   H     76.60800000    84.75300000    55.72500000
   H     75.45300000    83.74900000    56.63400000
   H     75.82000000    85.02000000    58.43000000
  Ca     83.34000000    96.67000000    50.70000000
   O     82.73000000    99.00000000    51.59000000
   H     83.38000000    99.63000000    51.91000000
   H     81.92000000    99.26000000    52.02000000
   O     80.55000000    97.49000000    50.71000000
   H     79.88000000    96.81000000    50.70000000
   H     80.33000000    98.06000000    49.97000000
   O     82.31000000    96.54000000    48.40000000
   H     82.19000000    97.29000000    47.83000000
   H     82.17000000    95.78000000    47.84000000
   O     84.54000000    98.51000000    49.01000000
   H     85.13000000    98.07000000    48.40000000
   H     84.97000000    99.34000000    49.20000000
   O     82.20000000    94.38000000    50.81000000
   H     81.58000000    93.76000000    50.43000000
   H     82.75000000    93.85000000    51.38000000
   O     85.62000000    97.74000000    51.46000000
   H     86.05000000    98.56000000    51.21000000
   H     85.83000000    97.64000000    52.39000000

Ca 1.00



