%chk=loop1.apoCaM-CA-Ng.Init295.run13.water5.chk
%nprocshared=20
%mem=10GB
%nosave
#b3lyp/svp scf=(tight,noincore,xqc) Test 
#IOP(5/87=12) Density=Current Pop=(MK,readradii) iop(6/33=2) iop(6/42=6)

loop1.apoCaM-CA-Ng.Init295.run13.water5 

   0  1 
   C     65.41000000    50.68000000    62.78000000
   C     65.23000000    50.42000000    61.29000000
   O     64.98000000    49.31000000    60.83000000
   H     66.06800000    51.53700000    62.92200000
   H     64.44100000    50.88800000    63.23300000
   H     65.85100000    49.80200000    63.25200000
   N     65.64000000    51.43000000    60.51000000
   C     65.64000000    51.53000000    59.07000000
   C     64.32000000    51.16000000    58.41000000
   O     64.29000000    50.27000000    57.56000000
   C     66.89000000    50.87000000    58.48000000
   C     67.30000000    51.40000000    57.11000000
   O     68.10000000    50.72000000    56.43000000
   O     66.80000000    52.45000000    56.67000000
   H     65.99000000    52.25000000    60.98000000
   H     65.73000000    52.60000000    58.85000000
   H     66.62000000    49.81000000    58.44000000
   H     67.68000000    51.05000000    59.20000000
   N     63.22000000    51.72000000    58.93000000
   C     61.85000000    51.49000000    58.51000000
   C     61.03000000    52.76000000    58.32000000
   O     60.04000000    52.71000000    57.59000000
   C     61.06000000    50.63000000    59.48000000
   C     61.65000000    49.27000000    59.85000000
   C     60.77000000    48.67000000    60.94000000
   C     60.81000000    49.34000000    62.31000000
   N     60.19000000    48.54000000    63.37000000
   H     63.37000000    52.29000000    59.74000000
   H     61.89000000    51.05000000    57.51000000
   H     60.07000000    50.43000000    59.08000000
   H     60.93000000    51.13000000    60.45000000
   H     62.70000000    49.32000000    60.15000000
   H     61.46000000    48.69000000    58.95000000
   H     61.00000000    47.61000000    61.04000000
   H     59.72000000    48.69000000    60.64000000
   H     60.37000000    50.33000000    62.24000000
   H     61.84000000    49.62000000    62.56000000
   H     60.34000000    48.94000000    64.29000000
   H     59.18000000    48.46000000    63.31000000
   H     60.55000000    47.60000000    63.37000000
   N     61.38000000    53.88000000    58.96000000
   C     60.58000000    55.09000000    58.95000000
   C     60.94000000    56.02000000    57.81000000
   O     60.20000000    56.94000000    57.44000000
   C     60.85000000    55.76000000    60.29000000
   C     59.90000000    56.89000000    60.67000000
   O     60.01000000    57.50000000    61.75000000
   O     58.87000000    57.04000000    59.97000000
   H     62.25000000    53.88000000    59.47000000
   H     59.52000000    54.81000000    58.94000000
   H     61.88000000    56.08000000    60.43000000
   H     60.75000000    55.00000000    61.07000000
   N     62.12000000    55.79000000    57.22000000
   C     62.50000000    56.37000000    55.95000000
   C     62.91000000    57.84000000    55.98000000
   O     63.43000000    58.34000000    54.98000000
   H     62.82000000    55.35000000    57.80000000
   H     61.63000000    56.42000000    55.29000000
   H     63.30000000    55.79000000    55.50000000
   N     62.75000000    58.53000000    57.11000000
   C     63.33000000    59.83000000    57.38000000
   C     64.06000000    59.80000000    58.71000000
   O     65.27000000    60.00000000    58.80000000
   C     62.18000000    60.82000000    57.46000000
   C     60.81000000    60.19000000    57.71000000
   O     59.98000000    60.13000000    56.79000000
   O     60.56000000    59.61000000    58.79000000
   H     62.38000000    58.13000000    57.96000000
   H     64.04000000    60.13000000    56.60000000
   H     62.22000000    61.46000000    56.58000000
   H     62.36000000    61.56000000    58.24000000
   N     63.32000000    59.58000000    59.80000000
   C     63.70000000    59.47000000    61.20000000
   C     64.51000000    58.32000000    61.76000000
   O     64.98000000    57.47000000    61.01000000
   H     62.34000000    59.72000000    59.60000000
   H     62.78000000    59.52000000    61.79000000
   H     64.18000000    60.43000000    61.39000000
   N     64.71000000    58.24000000    63.08000000
   C     65.41000000    57.13000000    63.70000000
   C     66.36000000    57.65000000    64.77000000
   O     66.04000000    58.71000000    65.31000000
   C     64.45000000    56.19000000    64.42000000
   C     63.51000000    56.82000000    65.45000000
   O     63.60000000    55.54000000    63.50000000
   H     64.29000000    58.92000000    63.70000000
   H     65.96000000    56.55000000    62.96000000
   H     65.09000000    55.47000000    64.92000000
   H     62.73000000    55.91000000    63.72000000
   H     64.11000000    57.43000000    66.12000000
   H     62.87000000    57.55000000    64.95000000
   H     62.82000000    56.11000000    65.91000000
   N     67.47000000    57.02000000    65.17000000
   C     68.35000000    57.18000000    66.32000000
   C     69.39000000    58.28000000    66.17000000
   O     69.99000000    58.73000000    67.15000000
   C     68.93000000    55.83000000    66.74000000
   C     69.33000000    55.86000000    68.21000000
   C     70.08000000    55.37000000    65.85000000
   C     68.20000000    56.17000000    69.18000000
   H     67.72000000    56.19000000    64.65000000
   H     67.65000000    57.62000000    67.03000000
   H     68.23000000    55.00000000    66.65000000
   H     70.21000000    56.48000000    68.36000000
   H     69.59000000    54.83000000    68.46000000
   H     70.90000000    56.09000000    65.90000000
   H     70.50000000    54.41000000    66.13000000
   H     69.84000000    55.29000000    64.79000000
   H     68.39000000    55.69000000    70.14000000
   H     68.05000000    57.23000000    69.36000000
   H     67.28000000    55.67000000    68.85000000
   N     69.55000000    58.82000000    64.96000000
   C     70.38000000    59.95000000    64.63000000
   C     71.63000000    59.58000000    63.84000000
   O     71.50000000    58.79000000    62.92000000
   C     69.67000000    61.03000000    63.81000000
   C     68.98000000    60.56000000    62.54000000
   O     68.61000000    61.52000000    64.59000000
   H     69.05000000    58.32000000    64.24000000
   H     70.71000000    60.41000000    65.56000000
   H     70.39000000    61.83000000    63.63000000
   H     68.94000000    62.05000000    65.33000000
   H     68.54000000    61.37000000    61.95000000
   H     69.82000000    60.17000000    61.97000000
   H     68.23000000    59.77000000    62.67000000
   N     72.81000000    60.12000000    64.19000000
   C     74.06000000    59.82000000    63.52000000
   C     75.19000000    59.54000000    64.50000000
   O     75.97000000    58.63000000    64.25000000
   C     74.46000000    60.99000000    62.63000000
   C     75.66000000    60.64000000    61.74000000
   O     74.83000000    62.10000000    63.41000000
   H     72.68000000    60.95000000    64.75000000
   H     73.96000000    58.90000000    62.95000000
   H     73.69000000    61.31000000    61.93000000
   H     74.08000000    62.40000000    63.94000000
   H     75.94000000    61.60000000    61.32000000
   H     76.42000000    60.16000000    62.35000000
   H     75.39000000    60.05000000    60.87000000
   N     75.26000000    60.25000000    65.63000000
   C     76.10000000    60.16000000    66.81000000
   C     75.32000000    60.61000000    68.04000000
   O     74.38000000    61.40000000    68.04000000
   C     77.37000000    60.99000000    66.63000000
   C     78.28000000    60.52000000    65.50000000
   C     79.64000000    61.18000000    65.32000000
   C     80.35000000    61.46000000    66.65000000
   N     81.70000000    61.96000000    66.36000000
   H     74.54000000    60.95000000    65.64000000
   H     76.47000000    59.14000000    66.91000000
   H     77.90000000    60.95000000    67.58000000
   H     77.07000000    62.02000000    66.43000000
   H     77.74000000    60.63000000    64.57000000
   H     78.41000000    59.44000000    65.63000000
   H     79.50000000    62.09000000    64.75000000
   H     80.18000000    60.55000000    64.62000000
   H     80.35000000    60.48000000    67.13000000
   H     79.83000000    62.25000000    67.18000000
   H     81.76000000    62.96000000    66.20000000
   H     82.28000000    61.79000000    67.17000000
   H     82.19000000    61.42000000    65.67000000
   N     75.83000000    60.18000000    69.19000000
   C     75.25000000    60.46000000    70.49000000
   C     73.86000000    59.84000000    70.57000000
   O     72.90000000    60.56000000    70.81000000
   C     76.21000000    60.09000000    71.61000000
   C     75.67000000    60.42000000    73.00000000
   C     76.61000000    60.23000000    74.18000000
   O     77.85000000    60.27000000    74.00000000
   O     76.13000000    60.03000000    75.32000000
   H     76.68000000    59.64000000    69.11000000
   H     75.12000000    61.55000000    70.53000000
   H     77.14000000    60.64000000    71.43000000
   H     76.43000000    59.02000000    71.66000000
   H     74.80000000    59.85000000    73.30000000
   H     75.28000000    61.44000000    72.95000000
   N     73.61000000    58.54000000    70.46000000
   C     74.53000000    57.43000000    70.29000000
   H     75.45400000    57.63900000    70.82800000
   H     74.07900000    56.52000000    70.68500000
   H     74.74900000    57.29800000    69.23000000
   H     72.62000000    58.34000000    70.41000000
  Ca     58.23000000    58.67000000    58.20000000
   O     58.41000000    61.49000000    59.53000000
   H     59.13000000    62.00000000    59.15000000
   H     58.52000000    61.58000000    60.48000000
   O     56.28000000    56.76000000    57.92000000
   H     56.65000000    55.88000000    57.95000000
   H     55.34000000    56.64000000    58.05000000
   O     56.61000000    59.19000000    60.27000000
   H     56.97000000    59.10000000    61.15000000
   H     55.76000000    59.61000000    60.40000000
   O     57.81000000    58.36000000    55.45000000
   H     58.28000000    58.59000000    54.65000000
   H     57.32000000    57.57000000    55.22000000
   O     56.45000000    60.29000000    57.32000000
   H     56.13000000    60.25000000    56.41000000
   H     55.77000000    60.77000000    57.79000000

Ca 1.00



