%chk=loop2.holoCaM.run73.water1.chk
%nprocshared=20
%mem=10GB
%nosave
#b3lyp/svp scf=(tight,noincore,xqc) Test 
#IOP(5/87=12) Density=Current Pop=(MK,readradii) iop(6/33=2) iop(6/42=6)

loop2.holoCaM.run73.water1 

   -2  1 
   C     57.42000000    49.61000000    17.77000000
   C     56.20000000    50.14000000    18.51000000
   O     56.31000000    50.50000000    19.68000000
   H     58.26600000    49.56000000    18.45500000
   H     57.20700000    48.61400000    17.38300000
   H     57.66200000    50.27700000    16.94300000
   N     55.00000000    50.10000000    17.92000000
   C     53.82000000    50.36000000    18.72000000
   C     53.50000000    49.33000000    19.80000000
   O     53.36000000    48.16000000    19.47000000
   C     52.70000000    50.35000000    17.69000000
   C     51.31000000    50.44000000    18.30000000
   O     50.40000000    49.80000000    17.73000000
   O     51.12000000    51.04000000    19.38000000
   H     54.84000000    49.91000000    16.94000000
   H     53.82000000    51.32000000    19.24000000
   H     52.86000000    49.47000000    17.08000000
   H     52.81000000    51.27000000    17.10000000
   N     53.45000000    49.78000000    21.05000000
   C     53.32000000    48.91000000    22.21000000
   C     51.90000000    48.41000000    22.40000000
   O     51.59000000    47.51000000    23.18000000
   C     53.79000000    49.77000000    23.38000000
   H     53.47000000    50.77000000    21.25000000
   H     53.95000000    48.02000000    22.15000000
   H     53.58000000    50.84000000    23.34000000
   H     53.37000000    49.35000000    24.29000000
   H     54.86000000    49.60000000    23.46000000
   N     50.94000000    49.10000000    21.78000000
   C     49.53000000    48.92000000    22.08000000
   C     48.78000000    48.09000000    21.05000000
   O     47.61000000    47.76000000    21.28000000
   C     48.75000000    50.24000000    22.08000000
   C     49.38000000    51.32000000    22.95000000
   O     49.70000000    51.01000000    24.12000000
   O     49.67000000    52.37000000    22.34000000
   H     51.21000000    49.66000000    20.99000000
   H     49.51000000    48.53000000    23.09000000
   H     47.77000000    50.12000000    22.53000000
   H     48.62000000    50.63000000    21.07000000
   N     49.26000000    48.01000000    19.81000000
   C     48.67000000    47.34000000    18.67000000
   C     47.53000000    48.09000000    17.98000000
   O     46.69000000    47.54000000    17.28000000
   H     50.16000000    48.43000000    19.64000000
   H     48.32000000    46.32000000    18.82000000
   H     49.48000000    47.22000000    17.95000000
   N     47.57000000    49.40000000    18.25000000
   C     46.66000000    50.42000000    17.77000000
   C     47.14000000    51.22000000    16.56000000
   O     46.38000000    51.98000000    15.96000000
   C     46.39000000    51.33000000    18.96000000
   C     47.19000000    52.63000000    18.98000000
   N     46.56000000    53.77000000    18.69000000
   O     48.40000000    52.72000000    19.19000000
   H     48.30000000    49.73000000    18.87000000
   H     45.74000000    49.91000000    17.47000000
   H     46.44000000    50.82000000    19.92000000
   H     45.38000000    51.72000000    18.87000000
   H     45.61000000    53.65000000    18.36000000
   H     47.19000000    54.48000000    18.34000000
   N     48.40000000    51.08000000    16.13000000
   C     48.81000000    51.40000000    14.78000000
   C     49.25000000    52.85000000    14.58000000
   O     49.43000000    53.30000000    13.45000000
   H     48.94000000    50.37000000    16.60000000
   H     47.95000000    51.23000000    14.13000000
   H     49.66000000    50.75000000    14.58000000
   N     49.29000000    53.66000000    15.63000000
   C     49.81000000    55.01000000    15.71000000
   C     50.93000000    55.08000000    16.74000000
   O     50.92000000    54.26000000    17.65000000
   C     48.67000000    56.00000000    15.94000000
   C     47.84000000    56.25000000    14.68000000
   O     47.72000000    55.68000000    16.93000000
   H     49.09000000    53.17000000    16.49000000
   H     50.27000000    55.32000000    14.77000000
   H     49.24000000    56.90000000    16.19000000
   H     46.83000000    55.77000000    16.59000000
   H     47.16000000    55.42000000    14.47000000
   H     47.27000000    57.16000000    14.82000000
   H     48.50000000    56.38000000    13.83000000
   N     51.83000000    56.06000000    16.62000000
   C     53.01000000    56.21000000    17.45000000
   C     52.81000000    57.29000000    18.49000000
   O     52.33000000    58.37000000    18.14000000
   C     54.18000000    56.48000000    16.50000000
   C     54.39000000    55.31000000    15.54000000
   C     55.46000000    56.86000000    17.25000000
   C     54.98000000    53.98000000    16.01000000
   H     51.70000000    56.76000000    15.91000000
   H     53.20000000    55.30000000    18.02000000
   H     54.00000000    57.38000000    15.92000000
   H     55.00000000    55.67000000    14.71000000
   H     53.46000000    54.96000000    15.11000000
   H     56.26000000    57.15000000    16.57000000
   H     55.29000000    57.72000000    17.90000000
   H     55.86000000    56.08000000    17.90000000
   H     55.10000000    53.32000000    15.16000000
   H     55.97000000    54.30000000    16.34000000
   H     54.50000000    53.49000000    16.86000000
   N     53.03000000    56.94000000    19.76000000
   C     53.09000000    57.84000000    20.89000000
   C     54.54000000    58.28000000    21.06000000
   O     55.48000000    57.67000000    20.57000000
   C     52.57000000    57.17000000    22.16000000
   C     51.21000000    56.52000000    21.95000000
   O     51.10000000    55.27000000    22.02000000
   O     50.21000000    57.22000000    21.74000000
   H     53.34000000    55.99000000    19.95000000
   H     52.50000000    58.75000000    20.76000000
   H     52.44000000    57.88000000    22.97000000
   H     53.24000000    56.34000000    22.37000000
   N     54.74000000    59.25000000    21.96000000
   C     56.01000000    59.91000000    22.14000000
   C     57.05000000    58.94000000    22.69000000
   O     58.17000000    58.95000000    22.19000000
   C     55.91000000    61.25000000    22.88000000
   C     57.15000000    62.10000000    23.02000000
   C     58.00000000    62.41000000    21.95000000
   C     57.43000000    62.52000000    24.32000000
   C     59.13000000    63.20000000    22.22000000
   C     58.60000000    63.26000000    24.54000000
   C     59.49000000    63.59000000    23.51000000
   H     53.88000000    59.57000000    22.38000000
   H     56.29000000    60.12000000    21.11000000
   H     55.61000000    60.96000000    23.88000000
   H     55.07000000    61.86000000    22.54000000
   H     57.66000000    62.14000000    20.96000000
   H     56.81000000    62.39000000    25.20000000
   H     59.76000000    63.58000000    21.43000000
   H     58.80000000    63.63000000    25.54000000
   H     60.39000000    64.18000000    23.57000000
   N     56.70000000    58.01000000    23.58000000
   C     57.63000000    57.00000000    24.05000000
   C     58.12000000    55.98000000    23.04000000
   O     59.19000000    55.39000000    23.17000000
   C     56.90000000    56.32000000    25.20000000
   C     55.99000000    57.38000000    25.81000000
   C     55.59000000    58.09000000    24.51000000
   H     58.46000000    57.53000000    24.53000000
   H     56.25000000    55.52000000    24.84000000
   H     57.55000000    55.91000000    25.97000000
   H     55.10000000    56.93000000    26.25000000
   H     56.48000000    58.12000000    26.43000000
   H     54.64000000    57.78000000    24.09000000
   H     55.47000000    59.15000000    24.72000000
   N     57.25000000    55.75000000    22.05000000
   C     57.52000000    54.92000000    20.90000000
   C     58.37000000    55.54000000    19.80000000
   O     59.11000000    54.78000000    19.18000000
   C     56.20000000    54.34000000    20.40000000
   C     55.28000000    53.66000000    21.41000000
   C     53.85000000    53.40000000    20.98000000
   O     53.24000000    54.09000000    20.13000000
   O     53.15000000    52.54000000    21.55000000
   H     56.44000000    56.36000000    22.04000000
   H     58.09000000    54.05000000    21.20000000
   H     56.31000000    53.73000000    19.50000000
   H     55.63000000    55.19000000    20.04000000
   H     55.20000000    54.30000000    22.29000000
   H     55.75000000    52.71000000    21.67000000
   N     58.23000000    56.86000000    19.64000000
   C     59.02000000    57.76000000    18.83000000
   H     59.99500000    57.31200000    18.63600000
   H     58.50900000    57.94200000    17.88400000
   H     59.15300000    58.70400000    19.35900000
   H     57.50000000    57.28000000    20.20000000
  Ca     50.78000000    53.36000000    20.33000000
   O     49.07000000    55.47000000    20.02000000
   H     49.27000000    56.17000000    20.64000000
   H     48.43000000    55.86000000    19.42000000

Ca 1.00



