%chk=loop4.holoCaM-CaMKII.run36.water2.chk
%nprocshared=20
%mem=10GB
%nosave
#b3lyp/svp scf=(tight,noincore,xqc) Test 
#IOP(5/87=12) Density=Current Pop=(MK,readradii) iop(6/33=2) iop(6/42=6)

loop4.holoCaM-CaMKII.run36.water2 

   -3  1 
   C      5.86400000    57.52000000    12.50400000
   C      6.76400000    57.99000000    13.64400000
   O      6.74400000    59.19000000    13.86400000
   H      4.97300000    58.14700000    12.46300000
   H      6.40400000    57.59400000    11.56000000
   H      5.57100000    56.48400000    12.67500000
   N      7.47400000    57.11000000    14.35400000
   C      8.49400000    57.49000000    15.30400000
   C      9.49400000    58.49000000    14.74400000
   O     10.29400000    58.22000000    13.85400000
   C      9.19400000    56.17000000    15.61400000
   C     10.16400000    56.24000000    16.78400000
   O     10.17400000    57.26000000    17.50400000
   O     10.83400000    55.22000000    17.04400000
   H      7.55400000    56.18000000    13.95400000
   H      8.16400000    57.88000000    16.27400000
   H      9.72400000    55.90000000    14.70400000
   H      8.46400000    55.39000000    15.81400000
   N      9.53400000    59.75000000    15.20400000
   C     10.41400000    60.85000000    14.90400000
   C     11.82400000    60.69000000    15.46400000
   O     12.77400000    61.09000000    14.79400000
   C      9.86400000    62.23000000    15.25400000
   C      8.46400000    62.32000000    14.66400000
   C     10.78400000    63.35000000    14.76400000
   C      7.77400000    63.65000000    14.97400000
   H      8.86400000    59.91000000    15.94400000
   H     10.55400000    60.72000000    13.83400000
   H      9.81400000    62.25000000    16.34400000
   H      7.81400000    61.54000000    15.07400000
   H      8.51400000    62.27000000    13.57400000
   H     11.74400000    63.29000000    15.29400000
   H     11.11400000    63.18000000    13.73400000
   H     10.32400000    64.29000000    15.03400000
   H      6.74400000    63.68000000    14.62400000
   H      7.82400000    63.84000000    16.05400000
   H      8.22400000    64.47000000    14.41400000
   N     11.98400000    60.20000000    16.69400000
   C     13.28400000    60.24000000    17.33400000
   C     14.02400000    58.91000000    17.39400000
   O     15.24400000    58.91000000    17.56400000
   C     13.13400000    60.80000000    18.74400000
   C     12.25400000    60.10000000    19.77400000
   O     12.25400000    60.54000000    20.94400000
   O     11.51400000    59.16000000    19.42400000
   H     11.18400000    60.18000000    17.30400000
   H     13.87400000    60.93000000    16.73400000
   H     12.79400000    61.83000000    18.66400000
   H     14.17400000    60.94000000    19.04400000
   N     13.34400000    57.81000000    17.06400000
   C     13.98400000    56.52000000    17.09400000
   C     14.08400000    55.93000000    18.49400000
   O     15.05400000    55.22000000    18.76400000
   H     12.34400000    57.85000000    16.91400000
   H     14.96400000    56.53000000    16.61400000
   H     13.34400000    55.84000000    16.52400000
   N     13.10400000    56.16000000    19.37400000
   C     13.04400000    55.39000000    20.60400000
   C     12.26400000    54.09000000    20.49400000
   O     12.19400000    53.42000000    21.52400000
   C     12.57400000    56.33000000    21.71400000
   C     11.12400000    56.77000000    21.54400000
   O     10.34400000    56.26000000    20.71400000
   O     10.68400000    57.62000000    22.34400000
   H     12.25400000    56.59000000    19.03400000
   H     14.06400000    55.07000000    20.82400000
   H     13.17400000    57.24000000    21.64400000
   H     12.84400000    55.92000000    22.68400000
   N     11.69400000    53.71000000    19.35400000
   C     11.00400000    52.45000000    19.16400000
   C      9.50400000    52.52000000    19.43400000
   O      8.92400000    51.44000000    19.43400000
   H     11.65400000    54.32000000    18.54400000
   H     11.46400000    51.65000000    19.74400000
   H     11.11400000    52.15000000    18.12400000
   N      8.96400000    53.72000000    19.69400000
   C      7.54400000    53.90000000    19.91400000
   C      6.98400000    55.21000000    19.38400000
   O      7.78400000    56.08000000    19.04400000
   C      7.31400000    53.86000000    21.42400000
   C      7.74400000    52.60000000    22.17400000
   C      6.99400000    52.29000000    23.45400000
   N      7.49400000    52.81000000    24.58400000
   O      5.94400000    51.65000000    23.53400000
   H      9.50400000    54.56000000    19.75400000
   H      6.94400000    53.13000000    19.41400000
   H      6.25400000    53.97000000    21.64400000
   H      7.83400000    54.73000000    21.83400000
   H      8.80400000    52.58000000    22.43400000
   H      7.51400000    51.73000000    21.56400000
   H      8.36400000    53.31000000    24.61400000
   H      6.86400000    52.86000000    25.37400000
   N      5.65400000    55.33000000    19.28400000
   C      5.03400000    56.43000000    18.57400000
   C      4.01400000    57.10000000    19.48400000
   O      3.10400000    56.41000000    19.93400000
   C      4.40400000    56.07000000    17.23400000
   C      4.14400000    57.35000000    16.44400000
   C      5.32400000    55.16000000    16.43400000
   H      5.07400000    54.55000000    19.54400000
   H      5.73400000    57.27000000    18.49400000
   H      3.48400000    55.53000000    17.43400000
   H      3.54400000    57.10000000    15.56400000
   H      3.51400000    58.07000000    16.96400000
   H      5.09400000    57.83000000    16.22400000
   H      4.84400000    54.78000000    15.52400000
   H      6.25400000    55.62000000    16.09400000
   H      5.54400000    54.22000000    16.93400000
   N      4.09400000    58.40000000    19.75400000
   C      3.21400000    59.17000000    20.61400000
   C      2.18400000    59.96000000    19.81400000
   O      2.49400000    60.26000000    18.66400000
   C      4.11400000    60.05000000    21.47400000
   C      3.30400000    61.07000000    22.27400000
   N      2.62400000    60.67000000    23.35400000
   O      3.14400000    62.25000000    21.98400000
   H      4.89400000    58.88000000    19.36400000
   H      2.61400000    58.58000000    21.29400000
   H      4.84400000    60.60000000    20.88400000
   H      4.59400000    59.41000000    22.21400000
   H      2.45400000    59.69000000    23.53400000
   H      2.33400000    61.39000000    23.99400000
   N      1.11400000    60.50000000    20.41400000
   C      0.12400000    61.29000000    19.72400000
   C      0.70400000    62.45000000    18.92400000
   O      0.26400000    62.63000000    17.78400000
   C     -0.88600000    61.78000000    20.76400000
   C     -2.08600000    62.50000000    20.19400000
   C     -2.89600000    61.91000000    19.21400000
   C     -2.15600000    63.89000000    20.33400000
   C     -3.96600000    62.60000000    18.62400000
   C     -3.20600000    64.60000000    19.74400000
   C     -4.10600000    63.98000000    18.85400000
   O     -5.17600000    64.64000000    18.33400000
   H      0.75400000    60.12000000    21.28400000
   H     -0.38600000    60.65000000    19.01400000
   H     -0.33600000    62.36000000    21.51400000
   H     -1.38600000    60.96000000    21.28400000
   H     -2.83600000    60.85000000    19.03400000
   H     -1.44600000    64.49000000    20.88400000
   H     -4.62600000    62.08000000    17.94400000
   H     -3.30600000    65.65000000    19.95400000
   H     -5.47600000    65.45000000    18.76400000
   N      1.70400000    63.11000000    19.50400000
   C      2.50400000    64.17000000    18.91400000
   C      3.06400000    63.80000000    17.54400000
   O      3.14400000    64.61000000    16.62400000
   C      3.69400000    64.59000000    19.76400000
   C      4.68400000    65.68000000    19.35400000
   C      5.50400000    66.21000000    20.52400000
   O      4.94400000    67.00000000    21.31400000
   O      6.69400000    65.82000000    20.61400000
   H      1.95400000    62.83000000    20.44400000
   H      1.90400000    65.06000000    18.75400000
   H      4.24400000    63.69000000    20.02400000
   H      3.24400000    64.99000000    20.67400000
   H      4.07400000    66.45000000    18.88400000
   H      5.43400000    65.20000000    18.73400000
   N      3.65400000    62.61000000    17.44400000
   C      4.33400000    62.03000000    16.30400000
   C      3.29400000    61.54000000    15.30400000
   O      3.36400000    61.75000000    14.09400000
   C      5.17400000    60.85000000    16.78400000
   C      6.23400000    61.27000000    17.79400000
   C      7.28400000    60.23000000    18.17400000
   O      8.46400000    60.20000000    17.77400000
   O      6.94400000    59.35000000    18.99400000
   H      3.50400000    61.90000000    18.14400000
   H      4.91400000    62.80000000    15.78400000
   H      5.68400000    60.28000000    16.00400000
   H      4.59400000    60.05000000    17.26400000
   H      5.72400000    61.58000000    18.71400000
   H      6.72400000    62.11000000    17.32400000
   N      2.26400000    60.90000000    15.84400000
   C      1.09400000    60.40000000    15.14400000
   H      0.30100000    61.14600000    15.18400000
   H      1.35000000    60.19900000    14.10400000
   H      0.75200000    59.48000000    15.61800000
   H      2.17400000    60.88000000    16.85400000
  Ca      9.12000000    58.24000000    19.75000000
   O      9.77000000    60.22000000    21.48000000
   H      9.78000000    60.64000000    22.35000000
   H     10.68000000    60.29000000    21.18000000
   O      7.41000000    57.89000000    21.84000000
   H      7.83000000    57.38000000    22.54000000
   H      7.11000000    58.68000000    22.27000000

Ca 1.00



