%chk=loop1.apoCaM-CA-Ng.Init293.run11.water4.chk
%nprocshared=20
%mem=10GB
%nosave
#b3lyp/svp scf=(tight,noincore,xqc) Test 
#IOP(5/87=12) Density=Current Pop=(MK,readradii) iop(6/33=2) iop(6/42=6)

loop1.apoCaM-CA-Ng.Init293.run11.water4 

   0  1 
   C     30.69000000    19.80000000    24.13000000
   C     30.01000000    19.04000000    23.00000000
   O     30.64000000    18.80000000    21.98000000
   H     31.59500000    20.27600000    23.75400000
   H     30.01300000    20.56200000    24.51500000
   H     30.95100000    19.10700000    24.93000000
   N     28.76000000    18.64000000    23.25000000
   C     28.14000000    17.56000000    22.51000000
   C     26.75000000    17.93000000    22.03000000
   O     25.73000000    17.54000000    22.59000000
   C     28.16000000    16.31000000    23.40000000
   C     27.50000000    16.32000000    24.77000000
   O     26.78000000    15.33000000    25.06000000
   O     27.75000000    17.13000000    25.68000000
   H     28.30000000    19.01000000    24.07000000
   H     28.73000000    17.44000000    21.60000000
   H     29.19000000    16.00000000    23.57000000
   H     27.65000000    15.57000000    22.79000000
   N     26.66000000    18.78000000    21.00000000
   C     25.47000000    19.21000000    20.29000000
   C     25.67000000    19.12000000    18.78000000
   O     26.23000000    20.02000000    18.17000000
   C     25.12000000    20.63000000    20.71000000
   C     24.79000000    20.69000000    22.20000000
   C     24.10000000    22.00000000    22.56000000
   C     23.75000000    22.13000000    24.04000000
   N     22.69000000    21.16000000    24.37000000
   H     27.52000000    19.20000000    20.71000000
   H     24.62000000    18.60000000    20.61000000
   H     24.24000000    20.86000000    20.11000000
   H     25.91000000    21.34000000    20.48000000
   H     25.71000000    20.59000000    22.77000000
   H     24.13000000    19.86000000    22.45000000
   H     23.19000000    22.07000000    21.96000000
   H     24.74000000    22.82000000    22.24000000
   H     23.37000000    23.12000000    24.26000000
   H     24.70000000    22.02000000    24.56000000
   H     21.82000000    21.37000000    23.91000000
   H     23.08000000    20.23000000    24.29000000
   H     22.50000000    21.22000000    25.36000000
   N     25.28000000    18.07000000    18.05000000
   C     24.50000000    16.89000000    18.35000000
   C     23.05000000    17.08000000    18.76000000
   O     22.62000000    18.12000000    19.27000000
   C     25.30000000    15.98000000    19.28000000
   C     26.80000000    15.81000000    19.04000000
   O     27.36000000    16.11000000    17.96000000
   O     27.56000000    15.32000000    19.90000000
   H     25.52000000    18.13000000    17.07000000
   H     24.44000000    16.39000000    17.38000000
   H     24.84000000    15.01000000    19.43000000
   H     25.22000000    16.28000000    20.32000000
   N     22.12000000    16.23000000    18.32000000
   C     22.25000000    14.84000000    17.96000000
   C     21.71000000    14.01000000    19.12000000
   O     20.68000000    14.44000000    19.63000000
   H     21.18000000    16.56000000    18.49000000
   H     23.30000000    14.63000000    17.73000000
   H     21.75000000    14.72000000    17.00000000
   N     22.29000000    12.89000000    19.56000000
   C     23.50000000    12.19000000    19.17000000
   C     24.68000000    12.51000000    20.08000000
   O     25.80000000    12.09000000    19.78000000
   C     23.29000000    10.68000000    19.04000000
   C     22.70000000     9.99000000    20.26000000
   O     22.40000000     8.79000000    20.07000000
   O     22.38000000    10.61000000    21.30000000
   H     21.65000000    12.45000000    20.20000000
   H     23.91000000    12.55000000    18.23000000
   H     24.25000000    10.29000000    18.70000000
   H     22.63000000    10.65000000    18.17000000
   N     24.42000000    13.17000000    21.20000000
   C     25.33000000    13.85000000    22.11000000
   C     26.47000000    12.96000000    22.59000000
   O     26.25000000    12.04000000    23.38000000
   H     23.48000000    13.53000000    21.27000000
   H     24.72000000    14.12000000    22.98000000
   H     25.74000000    14.79000000    21.75000000
   N     27.67000000    13.23000000    22.09000000
   C     28.96000000    12.80000000    22.62000000
   C     30.14000000    13.50000000    21.96000000
   O     29.95000000    14.17000000    20.95000000
   C     29.30000000    11.32000000    22.50000000
   C     29.28000000    10.79000000    21.06000000
   O     28.33000000    10.57000000    23.19000000
   H     27.76000000    13.91000000    21.36000000
   H     29.02000000    13.05000000    23.68000000
   H     30.26000000    11.14000000    22.99000000
   H     27.48000000    10.99000000    23.01000000
   H     28.32000000    10.99000000    20.58000000
   H     29.99000000    11.30000000    20.42000000
   H     29.49000000     9.73000000    21.04000000
   N     31.31000000    13.45000000    22.59000000
   C     32.53000000    14.15000000    22.22000000
   C     33.81000000    13.38000000    22.52000000
   O     34.04000000    12.98000000    23.65000000
   C     32.62000000    15.56000000    22.81000000
   C     33.78000000    16.48000000    22.47000000
   C     32.35000000    15.60000000    24.31000000
   C     33.94000000    16.53000000    20.95000000
   H     31.40000000    12.93000000    23.46000000
   H     32.46000000    14.22000000    21.14000000
   H     31.74000000    16.09000000    22.45000000
   H     34.71000000    16.06000000    22.85000000
   H     33.60000000    17.44000000    22.96000000
   H     31.51000000    14.99000000    24.66000000
   H     33.21000000    15.21000000    24.85000000
   H     32.14000000    16.65000000    24.55000000
   H     32.97000000    16.53000000    20.47000000
   H     34.64000000    17.29000000    20.61000000
   H     34.26000000    15.55000000    20.60000000
   N     34.70000000    13.17000000    21.54000000
   C     36.03000000    12.62000000    21.70000000
   C     37.05000000    13.51000000    21.02000000
   O     38.26000000    13.32000000    21.09000000
   C     36.17000000    11.18000000    21.19000000
   C     35.87000000    11.02000000    19.71000000
   O     35.23000000    10.32000000    21.79000000
   H     34.46000000    13.37000000    20.58000000
   H     36.34000000    12.55000000    22.74000000
   H     37.19000000    10.87000000    21.42000000
   H     35.43000000     9.47000000    21.38000000
   H     36.45000000    10.20000000    19.27000000
   H     34.80000000    10.95000000    19.54000000
   H     36.22000000    11.87000000    19.11000000
   N     36.61000000    14.64000000    20.45000000
   C     37.33000000    15.55000000    19.59000000
   C     37.77000000    14.92000000    18.27000000
   O     38.49000000    13.92000000    18.31000000
   C     38.38000000    16.36000000    20.34000000
   C     37.88000000    17.06000000    21.61000000
   O     38.94000000    17.36000000    19.52000000
   H     35.76000000    15.04000000    20.82000000
   H     36.60000000    16.27000000    19.22000000
   H     39.19000000    15.70000000    20.65000000
   H     39.25000000    18.07000000    20.07000000
   H     37.83000000    16.35000000    22.43000000
   H     38.67000000    17.76000000    21.89000000
   H     36.95000000    17.62000000    21.45000000
   N     37.50000000    15.51000000    17.10000000
   C     38.11000000    15.13000000    15.85000000
   C     37.29000000    15.15000000    14.57000000
   O     37.70000000    14.39000000    13.69000000
   C     39.27000000    16.06000000    15.53000000
   C     40.58000000    15.77000000    16.27000000
   C     41.32000000    14.56000000    15.70000000
   C     42.68000000    14.50000000    16.41000000
   N     43.51000000    15.68000000    16.13000000
   H     36.77000000    16.21000000    17.06000000
   H     38.46000000    14.09000000    15.89000000
   H     38.96000000    17.07000000    15.80000000
   H     39.58000000    16.03000000    14.49000000
   H     40.39000000    15.71000000    17.34000000
   H     41.22000000    16.63000000    16.04000000
   H     41.53000000    14.75000000    14.65000000
   H     40.75000000    13.64000000    15.81000000
   H     43.20000000    13.66000000    15.94000000
   H     42.47000000    14.31000000    17.46000000
   H     44.35000000    15.59000000    16.68000000
   H     43.66000000    15.78000000    15.14000000
   H     43.08000000    16.57000000    16.35000000
   N     36.16000000    15.82000000    14.33000000
   C     35.38000000    16.74000000    15.13000000
   C     36.21000000    17.90000000    15.65000000
   O     36.30000000    18.13000000    16.86000000
   C     34.49000000    16.05000000    16.17000000
   C     33.49000000    16.97000000    16.86000000
   C     32.21000000    16.30000000    17.34000000
   O     31.05000000    16.73000000    17.13000000
   O     32.34000000    15.35000000    18.15000000
   H     35.82000000    15.76000000    13.38000000
   H     34.64000000    17.20000000    14.48000000
   H     35.05000000    15.47000000    16.90000000
   H     33.86000000    15.37000000    15.61000000
   H     33.30000000    17.71000000    16.08000000
   H     34.00000000    17.55000000    17.63000000
   N     36.85000000    18.65000000    14.75000000
   C     37.59000000    19.87000000    15.01000000
   H     38.53000000    19.84900000    14.45800000
   H     37.00000000    20.72900000    14.69000000
   H     37.79800000    19.94900000    16.07700000
   H     36.81000000    18.38000000    13.78000000
  Ca     29.73000000    14.91000000    18.48000000
   O     31.24000000    12.72000000    18.88000000
   H     30.93000000    11.95000000    19.35000000
   H     32.18000000    12.59000000    18.79000000
   O     29.28000000    14.40000000    15.74000000
   H     29.67000000    15.01000000    15.11000000
   H     29.19000000    13.58000000    15.25000000
   O     30.54000000    17.04000000    19.87000000
   H     30.58000000    17.66000000    20.60000000
   H     31.45000000    16.91000000    19.61000000
   O     27.97000000    12.94000000    18.35000000
   H     27.64000000    12.32000000    19.00000000
   H     27.20000000    13.20000000    17.85000000

Ca 1.00



