%chk=loop4.apoCaM-CA-Ng.Init295.run4.water6.chk
%nprocshared=20
%mem=10GB
%nosave
#b3lyp/svp scf=(tight,noincore,xqc) Test 
#IOP(5/87=12) Density=Current Pop=(MK,readradii) iop(6/33=2) iop(6/42=6)

loop4.apoCaM-CA-Ng.Init295.run4.water6 

   -3  1 
   C     60.05000000    21.88000000    51.12000000
   C     60.70000000    21.40000000    52.41000000
   O     60.93000000    22.13000000    53.37000000
   H     59.15300000    22.45200000    51.35700000
   H     60.75000000    22.51200000    50.57300000
   H     59.78100000    21.02000000    50.50600000
   N     60.97000000    20.10000000    52.49000000
   C     61.67000000    19.52000000    53.62000000
   C     61.03000000    19.73000000    54.98000000
   O     61.70000000    19.95000000    55.99000000
   C     63.17000000    19.82000000    53.58000000
   C     63.90000000    19.65000000    52.26000000
   O     64.46000000    20.61000000    51.68000000
   O     64.04000000    18.49000000    51.83000000
   H     60.70000000    19.58000000    51.66000000
   H     61.62000000    18.44000000    53.46000000
   H     63.65000000    19.08000000    54.21000000
   H     63.39000000    20.80000000    54.02000000
   N     59.70000000    19.84000000    54.96000000
   C     58.80000000    19.75000000    56.09000000
   C     58.69000000    18.35000000    56.68000000
   O     58.66000000    17.34000000    55.98000000
   C     57.48000000    20.35000000    55.61000000
   C     57.57000000    21.81000000    55.16000000
   C     56.42000000    20.25000000    56.71000000
   C     56.36000000    22.32000000    54.38000000
   H     59.32000000    19.68000000    54.04000000
   H     59.18000000    20.40000000    56.88000000
   H     57.12000000    19.74000000    54.79000000
   H     58.38000000    21.88000000    54.44000000
   H     57.80000000    22.45000000    56.01000000
   H     56.22000000    19.21000000    56.98000000
   H     56.82000000    20.77000000    57.58000000
   H     55.47000000    20.68000000    56.40000000
   H     56.28000000    21.77000000    53.44000000
   H     55.40000000    22.05000000    54.82000000
   H     56.51000000    23.39000000    54.20000000
   N     58.55000000    18.08000000    57.98000000
   C     58.60000000    18.92000000    59.17000000
   C     59.89000000    18.81000000    59.97000000
   O     60.36000000    19.78000000    60.55000000
   C     57.48000000    18.54000000    60.14000000
   C     57.17000000    17.05000000    60.21000000
   O     57.80000000    16.18000000    59.58000000
   O     56.11000000    16.71000000    60.78000000
   H     58.42000000    17.10000000    58.15000000
   H     58.54000000    19.98000000    58.93000000
   H     56.57000000    19.12000000    59.96000000
   H     57.63000000    18.83000000    61.18000000
   N     60.50000000    17.63000000    60.10000000
   C     61.84000000    17.56000000    60.67000000
   C     61.91000000    18.00000000    62.12000000
   O     61.12000000    17.57000000    62.96000000
   H     60.14000000    16.84000000    59.59000000
   H     62.48000000    18.16000000    60.03000000
   H     62.13000000    16.51000000    60.63000000
   N     62.83000000    18.94000000    62.36000000
   C     63.22000000    19.29000000    63.71000000
   C     62.34000000    20.42000000    64.22000000
   O     62.35000000    20.64000000    65.43000000
   C     64.70000000    19.66000000    63.80000000
   C     65.15000000    20.80000000    62.90000000
   O     65.44000000    21.92000000    63.37000000
   O     65.21000000    20.53000000    61.68000000
   H     63.25000000    19.42000000    61.58000000
   H     62.98000000    18.46000000    64.38000000
   H     65.27000000    18.75000000    63.58000000
   H     64.98000000    19.76000000    64.85000000
   N     61.68000000    21.17000000    63.33000000
   C     60.84000000    22.23000000    63.84000000
   C     61.55000000    23.57000000    64.02000000
   O     60.92000000    24.59000000    64.29000000
   H     61.71000000    20.97000000    62.34000000
   H     60.51000000    22.04000000    64.86000000
   H     59.98000000    22.31000000    63.17000000
   N     62.87000000    23.68000000    63.91000000
   C     63.66000000    24.83000000    64.30000000
   C     63.43000000    26.08000000    63.45000000
   O     63.83000000    27.14000000    63.91000000
   C     63.64000000    25.01000000    65.82000000
   C     64.34000000    24.03000000    66.76000000
   C     64.16000000    24.30000000    68.24000000
   N     64.79000000    23.56000000    69.16000000
   O     63.47000000    25.21000000    68.70000000
   H     63.35000000    22.87000000    63.54000000
   H     64.73000000    24.70000000    64.18000000
   H     62.61000000    25.15000000    66.13000000
   H     64.12000000    25.96000000    66.05000000
   H     65.40000000    24.03000000    66.50000000
   H     63.96000000    23.02000000    66.63000000
   H     65.39000000    22.78000000    68.91000000
   H     64.66000000    23.87000000    70.11000000
   N     62.84000000    25.97000000    62.26000000
   C     62.83000000    27.12000000    61.38000000
   C     64.26000000    27.38000000    60.95000000
   O     65.00000000    26.52000000    60.48000000
   C     61.87000000    26.84000000    60.22000000
   C     60.44000000    26.62000000    60.70000000
   C     61.92000000    27.91000000    59.14000000
   H     62.49000000    25.11000000    61.87000000
   H     62.56000000    28.03000000    61.91000000
   H     62.12000000    25.84000000    59.86000000
   H     59.74000000    26.44000000    59.88000000
   H     60.41000000    25.64000000    61.17000000
   H     60.07000000    27.46000000    61.29000000
   H     61.09000000    27.69000000    58.47000000
   H     61.58000000    28.85000000    59.57000000
   H     62.81000000    27.92000000    58.50000000
   N     64.79000000    28.59000000    61.19000000
   C     66.04000000    29.03000000    60.62000000
   C     65.96000000    29.24000000    59.11000000
   O     65.01000000    29.79000000    58.57000000
   C     66.61000000    30.25000000    61.35000000
   C     68.05000000    30.47000000    60.90000000
   N     68.95000000    29.48000000    60.83000000
   O     68.36000000    31.62000000    60.60000000
   H     64.22000000    29.33000000    61.57000000
   H     66.71000000    28.18000000    60.73000000
   H     66.64000000    30.08000000    62.42000000
   H     66.08000000    31.19000000    61.21000000
   H     68.80000000    28.55000000    61.20000000
   H     69.85000000    29.67000000    60.41000000
   N     67.06000000    28.97000000    58.39000000
   C     67.34000000    29.19000000    56.99000000
   C     68.30000000    28.12000000    56.50000000
   O     69.08000000    27.58000000    57.28000000
   C     67.83000000    30.62000000    56.83000000
   C     68.41000000    30.97000000    55.48000000
   C     67.62000000    31.36000000    54.39000000
   C     69.78000000    30.71000000    55.31000000
   C     68.24000000    31.66000000    53.17000000
   C     70.39000000    30.98000000    54.08000000
   C     69.61000000    31.39000000    52.98000000
   O     70.23000000    31.65000000    51.79000000
   H     67.66000000    28.43000000    58.99000000
   H     66.41000000    29.15000000    56.43000000
   H     68.57000000    30.91000000    57.57000000
   H     66.92000000    31.22000000    56.84000000
   H     66.57000000    31.59000000    54.43000000
   H     70.42000000    30.40000000    56.12000000
   H     67.64000000    32.03000000    52.35000000
   H     71.45000000    30.75000000    54.04000000
   H     71.14000000    31.35000000    51.75000000
   N     68.23000000    27.78000000    55.21000000
   C     69.25000000    27.07000000    54.48000000
   C     69.48000000    27.62000000    53.09000000
   O     70.58000000    28.09000000    52.82000000
   C     68.88000000    25.59000000    54.46000000
   C     69.99000000    24.72000000    53.88000000
   C     71.25000000    24.75000000    54.74000000
   O     72.36000000    24.95000000    54.21000000
   O     71.18000000    24.39000000    55.94000000
   H     67.61000000    28.22000000    54.54000000
   H     70.19000000    27.23000000    55.02000000
   H     67.96000000    25.41000000    53.89000000
   H     68.68000000    25.19000000    55.45000000
   H     70.20000000    25.08000000    52.87000000
   H     69.69000000    23.67000000    53.84000000
   N     68.59000000    27.64000000    52.09000000
   C     67.18000000    27.30000000    52.02000000
   C     66.23000000    28.30000000    51.37000000
   O     66.70000000    29.30000000    50.83000000
   C     67.04000000    25.95000000    51.33000000
   C     67.29000000    26.08000000    49.83000000
   C     67.43000000    24.73000000    49.15000000
   O     66.42000000    24.07000000    48.80000000
   O     68.54000000    24.19000000    48.98000000
   H     68.90000000    28.10000000    51.25000000
   H     66.87000000    27.02000000    53.03000000
   H     66.05000000    25.49000000    51.41000000
   H     67.75000000    25.26000000    51.77000000
   H     68.15000000    26.72000000    49.66000000
   H     66.52000000    26.63000000    49.28000000
   N     64.93000000    27.99000000    51.37000000
   C     63.89000000    28.72000000    50.68000000
   H     63.03800000    28.85400000    51.34600000
   H     64.27000000    29.69500000    50.37600000
   H     63.57700000    28.16100000    49.79800000
   H     64.67000000    27.12000000    51.81000000
  Ca     64.91000000    22.11000000    49.68000000
   O     66.93000000    22.52000000    51.44000000
   H     66.58000000    23.04000000    52.16000000
   H     67.84000000    22.79000000    51.37000000
   O     63.56000000    23.89000000    48.20000000
   H     62.92000000    23.85000000    47.49000000
   H     64.08000000    24.67000000    48.01000000
   O     63.72000000    23.90000000    51.19000000
   H     63.98000000    24.21000000    52.05000000
   H     62.88000000    23.45000000    51.33000000
   O     65.05000000    21.51000000    46.92000000
   H     65.17000000    20.61000000    46.63000000
   H     65.64000000    22.02000000    46.37000000
   O     64.33000000    19.35000000    48.90000000
   H     64.09000000    18.89000000    49.70000000
   H     64.57000000    18.66000000    48.29000000
   O     66.98000000    20.54000000    49.20000000
   H     67.50000000    21.00000000    48.54000000
   H     67.39000000    19.69000000    49.29000000

Ca 1.00



