%chk=loop3.apoCaM-CA-Ng.Init31.run13.water5.chk
%nprocshared=20
%mem=10GB
%nosave
#b3lyp/svp scf=(tight,noincore,xqc) Test 
#IOP(5/87=12) Density=Current Pop=(MK,readradii) iop(6/33=2) iop(6/42=6)

loop3.apoCaM-CA-Ng.Init31.run13.water5 

   0  1 
   C     95.39000000    89.89000000    16.38000000
   C     95.98000000    89.00000000    17.45000000
   O     95.68000000    89.14000000    18.64000000
   H     94.48600000    90.36400000    16.76100000
   H     96.11400000    90.65700000    16.10500000
   H     95.14400000    89.29100000    15.50300000
   N     96.90000000    88.11000000    17.07000000
   C     97.41000000    87.02000000    17.88000000
   C     98.11000000    87.46000000    19.16000000
   O     98.18000000    86.71000000    20.14000000
   C     98.38000000    86.12000000    17.14000000
   C     99.38000000    86.67000000    16.13000000
   O    100.50000000    86.16000000    15.93000000
   O     99.28000000    87.84000000    15.70000000
   H     97.34000000    88.21000000    16.17000000
   H     96.57000000    86.37000000    18.14000000
   H     97.82000000    85.38000000    16.57000000
   H     98.99000000    85.56000000    17.85000000
   N     98.60000000    88.69000000    19.11000000
   C     99.04000000    89.38000000    20.31000000
   C    100.26000000    88.64000000    20.82000000
   O    101.30000000    88.70000000    20.16000000
   C     99.37000000    90.83000000    19.99000000
   C     98.16000000    91.75000000    19.82000000
   C     98.72000000    93.10000000    19.39000000
   C     97.67000000    94.19000000    19.20000000
   N     96.95000000    94.45000000    20.45000000
   H     98.50000000    89.27000000    18.29000000
   H     98.25000000    89.32000000    21.07000000
   H     99.96000000    90.95000000    19.08000000
   H    100.08000000    91.12000000    20.76000000
   H     97.53000000    91.76000000    20.70000000
   H     97.65000000    91.35000000    18.95000000
   H     99.27000000    93.10000000    18.45000000
   H     99.42000000    93.38000000    20.18000000
   H     97.02000000    93.78000000    18.43000000
   H     98.13000000    95.12000000    18.83000000
   H     96.50000000    93.58000000    20.69000000
   H     97.63000000    94.58000000    21.19000000
   H     96.22000000    95.14000000    20.36000000
   N    100.22000000    87.99000000    21.98000000
   C    101.37000000    87.29000000    22.53000000
   C    101.55000000    85.94000000    21.86000000
   O    102.52000000    85.25000000    22.19000000
   C    101.19000000    87.11000000    24.04000000
   C     99.85000000    86.61000000    24.56000000
   O     98.82000000    87.29000000    24.43000000
   O     99.86000000    85.45000000    25.02000000
   H     99.39000000    88.03000000    22.55000000
   H    102.20000000    87.98000000    22.44000000
   H    101.34000000    88.13000000    24.41000000
   H    102.02000000    86.50000000    24.40000000
   N    100.60000000    85.52000000    21.03000000
   C    100.50000000    84.25000000    20.32000000
   C    101.56000000    84.00000000    19.26000000
   O    102.29000000    84.91000000    18.88000000
   H     99.90000000    86.17000000    20.71000000
   H     99.53000000    84.16000000    19.82000000
   H    100.48000000    83.48000000    21.09000000
   N    101.76000000    82.78000000    18.76000000
   C    101.08000000    81.53000000    19.03000000
   C    100.76000000    80.84000000    17.71000000
   O    101.51000000    79.92000000    17.39000000
   C    101.86000000    80.66000000    20.02000000
   C    101.83000000    81.06000000    21.48000000
   N    100.68000000    81.12000000    22.16000000
   O    102.85000000    81.33000000    22.11000000
   H    102.52000000    82.79000000    18.09000000
   H    100.10000000    81.76000000    19.45000000
   H    102.89000000    80.58000000    19.68000000
   H    101.30000000    79.72000000    19.96000000
   H     99.84000000    80.79000000    21.70000000
   H    100.59000000    81.38000000    23.13000000
   N     99.86000000    81.29000000    16.84000000
   C     98.89000000    82.36000000    16.96000000
   C     97.75000000    81.97000000    17.89000000
   O     97.30000000    82.80000000    18.67000000
   H    100.00000000    80.93000000    15.90000000
   H     98.45000000    82.55000000    15.98000000
   H     99.48000000    83.24000000    17.19000000
   N     97.44000000    80.67000000    18.00000000
   C     96.60000000    80.22000000    19.09000000
   C     97.19000000    80.14000000    20.49000000
   O     98.39000000    80.25000000    20.76000000
   C     95.92000000    78.92000000    18.69000000
   C     94.79000000    79.03000000    17.69000000
   C     93.66000000    79.80000000    17.97000000
   C     94.90000000    78.38000000    16.46000000
   C     92.62000000    79.88000000    17.04000000
   C     93.89000000    78.47000000    15.49000000
   C     92.73000000    79.20000000    15.81000000
   O     91.67000000    79.11000000    14.95000000
   H     97.92000000    79.95000000    17.49000000
   H     95.83000000    80.99000000    19.17000000
   H     95.50000000    78.45000000    19.58000000
   H     96.57000000    78.11000000    18.36000000
   H     93.52000000    80.35000000    18.89000000
   H     95.78000000    77.77000000    16.32000000
   H     91.70000000    80.41000000    17.26000000
   H     93.94000000    77.86000000    14.60000000
   H     91.91000000    78.60000000    14.17000000
   N     96.34000000    80.09000000    21.51000000
   C     96.68000000    80.54000000    22.85000000
   C     96.52000000    79.55000000    24.00000000
   O     97.06000000    79.76000000    25.08000000
   C     95.94000000    81.83000000    23.21000000
   C     96.46000000    83.05000000    22.45000000
   C     94.43000000    81.69000000    23.09000000
   C     97.91000000    83.41000000    22.75000000
   H     95.38000000    79.88000000    21.28000000
   H     97.72000000    80.88000000    22.86000000
   H     96.13000000    82.10000000    24.25000000
   H     96.03000000    84.02000000    22.66000000
   H     96.41000000    82.87000000    21.37000000
   H     94.03000000    82.63000000    23.49000000
   H     94.09000000    81.41000000    22.09000000
   H     94.07000000    80.92000000    23.77000000
   H     98.05000000    84.36000000    22.23000000
   H     98.04000000    83.57000000    23.82000000
   H     98.59000000    82.71000000    22.25000000
   N     96.01000000    78.34000000    23.77000000
   C     95.82000000    77.30000000    24.76000000
   C     94.89000000    77.63000000    25.92000000
   O     93.78000000    78.09000000    25.68000000
   C     95.37000000    76.01000000    24.09000000
   O     96.04000000    75.67000000    22.90000000
   H     95.47000000    78.22000000    22.92000000
   H     96.81000000    77.10000000    25.17000000
   H     94.34000000    76.19000000    23.80000000
   H     95.32000000    75.12000000    24.73000000
   H     96.01000000    74.71000000    22.83000000
   N     95.27000000    77.25000000    27.14000000
   C     94.36000000    77.23000000    28.27000000
   C     94.38000000    78.53000000    29.06000000
   O     95.37000000    79.23000000    29.23000000
   C     94.81000000    76.02000000    29.09000000
   H     96.20000000    76.88000000    27.21000000
   H     93.35000000    77.09000000    27.89000000
   H     94.18000000    76.09000000    29.97000000
   H     94.47000000    75.15000000    28.53000000
   H     95.88000000    76.04000000    29.30000000
   N     93.23000000    78.81000000    29.67000000
   C     92.98000000    79.89000000    30.60000000
   C     93.39000000    81.29000000    30.18000000
   O     93.80000000    82.07000000    31.04000000
   C     93.59000000    79.45000000    31.93000000
   H     92.43000000    78.26000000    29.38000000
   H     91.91000000    79.97000000    30.81000000
   H     93.13000000    78.55000000    32.34000000
   H     94.67000000    79.39000000    31.83000000
   H     93.50000000    80.20000000    32.71000000
   N     93.41000000    81.59000000    28.87000000
   C     93.68000000    82.85000000    28.22000000
   C     92.54000000    83.41000000    27.38000000
   O     92.59000000    84.58000000    27.02000000
   C     94.95000000    82.79000000    27.38000000
   C     96.13000000    82.99000000    28.32000000
   C     97.33000000    83.09000000    27.40000000
   O     97.86000000    82.03000000    26.99000000
   O     97.90000000    84.19000000    27.22000000
   H     93.47000000    80.79000000    28.25000000
   H     93.79000000    83.63000000    28.98000000
   H     94.93000000    83.61000000    26.66000000
   H     95.02000000    81.76000000    27.02000000
   H     96.34000000    82.16000000    29.00000000
   H     95.99000000    83.97000000    28.78000000
   N     91.58000000    82.51000000    27.14000000
   C     90.34000000    82.92000000    26.50000000
   H     89.59400000    83.14300000    27.26300000
   H     90.51900000    83.81000000    25.89700000
   H     89.97600000    82.11500000    25.86100000
   H     91.55000000    81.80000000    27.84000000
  Ca    100.28800000    83.29000000    26.34000000
   O    101.63800000    83.24000000    23.94000000
   H    102.21800000    82.62000000    23.52000000
   H    101.83800000    84.09000000    23.54000000
   O    102.44800000    84.70000000    26.91000000
   H    103.36800000    84.49000000    26.80000000
   H    102.40800000    85.65000000    26.84000000
   O     99.47000000    81.15000000    24.99000000
   H     99.80000000    80.27000000    24.80000000
   H     98.63000000    81.00000000    25.43000000
   O    101.83800000    81.25000000    26.49000000
   H    101.87800000    80.72000000    27.29000000
   H    102.22800000    80.69000000    25.81000000
   O    100.62800000    83.21000000    28.94000000
   H    100.63800000    83.87000000    29.64000000
   H    101.31800000    82.60000000    29.17000000

Ca 1.00



