%chk=loop3.holoCaM-CaMKII.run25.water3.chk
%nprocshared=20
%mem=10GB
%nosave
#b3lyp/svp scf=(tight,noincore,xqc) Test 
#IOP(5/87=12) Density=Current Pop=(MK,readradii) iop(6/33=2) iop(6/42=6)

loop3.holoCaM-CaMKII.run25.water3 

   0  1 
   C     76.64000000    50.84000000    31.61000000
   C     76.17000000    49.85000000    32.67000000
   O     77.03000000    49.21000000    33.27000000
   H     77.65500000    50.58700000    31.30200000
   H     75.97600000    50.79100000    30.74700000
   H     76.62700000    51.84900000    32.02300000
   N     74.87000000    49.81000000    32.99000000
   C     74.41000000    49.00000000    34.09000000
   C     74.25000000    47.56000000    33.64000000
   O     73.79000000    47.24000000    32.54000000
   C     73.10000000    49.70000000    34.45000000
   C     72.36000000    49.17000000    35.67000000
   O     72.80000000    48.12000000    36.19000000
   O     71.30000000    49.70000000    36.07000000
   H     74.27000000    50.45000000    32.48000000
   H     75.10000000    48.96000000    34.94000000
   H     72.39000000    49.69000000    33.63000000
   H     73.35000000    50.76000000    34.58000000
   N     74.80000000    46.69000000    34.50000000
   C     74.97000000    45.28000000    34.21000000
   C     73.69000000    44.47000000    34.32000000
   O     73.63000000    43.37000000    33.77000000
   C     76.25000000    44.76000000    34.85000000
   C     76.80000000    43.54000000    34.12000000
   C     77.96000000    42.85000000    34.83000000
   C     78.57000000    41.87000000    33.84000000
   N     79.52000000    40.91000000    34.42000000
   H     75.16000000    47.12000000    35.34000000
   H     75.28000000    45.23000000    33.17000000
   H     76.03000000    44.43000000    35.86000000
   H     77.04000000    45.51000000    34.91000000
   H     77.15000000    43.77000000    33.12000000
   H     76.03000000    42.78000000    33.96000000
   H     77.66000000    42.41000000    35.79000000
   H     78.75000000    43.53000000    35.14000000
   H     78.95000000    42.33000000    32.93000000
   H     77.75000000    41.27000000    33.43000000
   H     79.09000000    40.25000000    35.04000000
   H     79.88000000    40.25000000    33.74000000
   H     80.37000000    41.32000000    34.81000000
   N     72.69000000    44.99000000    35.03000000
   C     71.40000000    44.34000000    35.19000000
   C     70.20000000    45.21000000    34.82000000
   O     69.15000000    44.68000000    34.46000000
   C     71.23000000    43.90000000    36.64000000
   C     71.07000000    45.01000000    37.67000000
   O     70.41000000    44.84000000    38.71000000
   O     71.60000000    46.13000000    37.51000000
   H     72.84000000    45.82000000    35.58000000
   H     71.39000000    43.52000000    34.48000000
   H     72.03000000    43.25000000    37.02000000
   H     70.26000000    43.40000000    36.64000000
   N     70.29000000    46.52000000    35.01000000
   C     69.38000000    47.58000000    34.61000000
   C     68.67000000    48.33000000    35.73000000
   O     67.78000000    49.14000000    35.51000000
   H     71.09000000    46.82000000    35.56000000
   H     68.79000000    47.18000000    33.79000000
   H     70.06000000    48.37000000    34.28000000
   N     68.98000000    48.01000000    36.99000000
   C     68.22000000    48.39000000    38.17000000
   C     68.26000000    49.89000000    38.40000000
   O     67.43000000    50.38000000    39.16000000
   C     68.71000000    47.58000000    39.36000000
   C     69.97000000    48.07000000    40.06000000
   N     69.96000000    48.29000000    41.38000000
   O     71.10000000    48.13000000    39.58000000
   H     69.77000000    47.40000000    37.17000000
   H     67.20000000    48.09000000    37.96000000
   H     68.72000000    46.51000000    39.17000000
   H     67.91000000    47.66000000    40.09000000
   H     69.07000000    48.18000000    41.85000000
   H     70.82000000    48.57000000    41.84000000
   N     69.23000000    50.61000000    37.85000000
   C     69.34000000    52.06000000    37.88000000
   C     70.57000000    52.61000000    38.59000000
   O     70.52000000    53.78000000    38.98000000
   H     69.99000000    50.08000000    37.44000000
   H     68.44000000    52.43000000    38.37000000
   H     69.35000000    52.45000000    36.86000000
   N     71.56000000    51.75000000    38.84000000
   C     72.71000000    52.03000000    39.67000000
   C     73.92000000    51.30000000    39.10000000
   O     73.83000000    50.20000000    38.58000000
   C     72.44000000    51.62000000    41.11000000
   C     71.49000000    52.48000000    41.91000000
   C     71.97000000    53.56000000    42.65000000
   C     70.20000000    52.01000000    42.20000000
   C     71.12000000    54.20000000    43.56000000
   C     69.37000000    52.54000000    43.20000000
   C     69.86000000    53.67000000    43.88000000
   O     69.17000000    54.20000000    44.93000000
   H     71.60000000    50.92000000    38.28000000
   H     72.94000000    53.09000000    39.61000000
   H     73.39000000    51.66000000    41.65000000
   H     71.97000000    50.64000000    41.06000000
   H     72.86000000    54.10000000    42.36000000
   H     69.98000000    51.11000000    41.65000000
   H     71.40000000    55.19000000    43.91000000
   H     68.44000000    52.08000000    43.52000000
   H     68.36000000    53.73000000    45.11000000
   N     75.13000000    51.87000000    39.24000000
   C     76.36000000    51.39000000    38.64000000
   C     77.40000000    51.32000000    39.75000000
   O     77.74000000    52.31000000    40.39000000
   C     76.73000000    52.25000000    37.44000000
   C     75.86000000    52.04000000    36.21000000
   C     78.17000000    51.93000000    37.01000000
   C     75.75000000    53.30000000    35.35000000
   H     75.24000000    52.74000000    39.73000000
   H     76.08000000    50.44000000    38.19000000
   H     76.74000000    53.30000000    37.72000000
   H     74.87000000    51.73000000    36.55000000
   H     76.22000000    51.17000000    35.66000000
   H     78.22000000    50.86000000    36.83000000
   H     78.41000000    52.48000000    36.10000000
   H     78.86000000    52.29000000    37.76000000
   H     74.91000000    53.10000000    34.68000000
   H     75.37000000    54.11000000    35.96000000
   H     76.73000000    53.47000000    34.90000000
   N     77.98000000    50.12000000    39.92000000
   C     79.14000000    49.90000000    40.76000000
   C     80.48000000    49.91000000    40.03000000
   O     80.46000000    49.86000000    38.80000000
   C     78.93000000    48.62000000    41.56000000
   O     79.51000000    47.48000000    40.97000000
   H     77.67000000    49.35000000    39.35000000
   H     79.23000000    50.70000000    41.49000000
   H     77.85000000    48.42000000    41.60000000
   H     79.25000000    48.81000000    42.58000000
   H     79.47000000    46.81000000    41.65000000
   N     81.57000000    49.89000000    40.79000000
   C     82.93000000    49.78000000    40.31000000
   C     83.02000000    48.45000000    39.56000000
   O     83.52000000    48.46000000    38.44000000
   C     83.89000000    49.85000000    41.50000000
   H     81.42000000    50.06000000    41.78000000
   H     83.07000000    50.57000000    39.57000000
   H     83.68000000    49.06000000    42.22000000
   H     84.92000000    49.65000000    41.19000000
   H     83.81000000    50.87000000    41.88000000
   N     82.53000000    47.34000000    40.12000000
   C     82.40000000    46.05000000    39.49000000
   C     81.51000000    45.98000000    38.25000000
   O     81.50000000    44.96000000    37.58000000
   C     81.81000000    45.07000000    40.50000000
   H     82.03000000    47.57000000    40.97000000
   H     83.42000000    45.75000000    39.24000000
   H     82.34000000    45.22000000    41.45000000
   H     80.72000000    45.19000000    40.48000000
   H     82.03000000    44.06000000    40.17000000
   N     80.67000000    46.99000000    37.98000000
   C     79.96000000    47.20000000    36.74000000
   C     80.66000000    48.05000000    35.69000000
   O     80.56000000    47.71000000    34.51000000
   C     78.54000000    47.71000000    36.94000000
   C     77.64000000    46.86000000    37.84000000
   C     76.33000000    47.60000000    38.04000000
   O     76.07000000    48.00000000    39.20000000
   O     75.46000000    47.69000000    37.15000000
   H     80.58000000    47.71000000    38.68000000
   H     79.84000000    46.19000000    36.35000000
   H     78.11000000    47.74000000    35.94000000
   H     78.55000000    48.73000000    37.31000000
   H     78.12000000    46.69000000    38.81000000
   H     77.45000000    45.93000000    37.31000000
   N     81.23000000    49.18000000    36.12000000
   C     81.95000000    50.12000000    35.30000000
   H     82.93500000    49.71700000    35.06600000
   H     81.40000000    50.29200000    34.37500000
   H     82.06200000    51.06100000    35.83800000
   H     81.26000000    49.27000000    37.13000000
  Ca     73.43000000    47.61000000    38.57000000
   O     73.86000000    48.36000000    41.44000000
   H     74.55000000    49.03000000    41.52000000
   H     73.31000000    48.49000000    42.21000000
   O     72.30000000    45.82000000    40.48000000
   H     71.62000000    45.44000000    39.91000000
   H     71.81000000    46.32000000    41.13000000
   O     74.67000000    45.26000000    39.20000000
   H     74.28000000    45.15000000    40.07000000
   H     75.32000000    44.57000000    39.15000000

Ca 1.00



