%chk=loop2.apoCaM-CA-Ng.Init295.run47.water5.chk
%nprocshared=20
%mem=10GB
%nosave
#b3lyp/svp scf=(tight,noincore,xqc) Test 
#IOP(5/87=12) Density=Current Pop=(MK,readradii) iop(6/33=2) iop(6/42=6)

loop2.apoCaM-CA-Ng.Init295.run47.water5 

   -2  1 
   C     99.39000000    53.82000000    27.10000000
   C    100.79000000    53.26000000    26.90000000
   O    101.43000000    53.47000000    25.88000000
   H     98.69800000    53.00300000    27.30200000
   H     99.39100000    54.51100000    27.94300000
   H     99.07600000    54.34600000    26.19800000
   N    101.32000000    52.50000000    27.87000000
   C    102.69000000    52.03000000    27.79000000
   C    103.49000000    53.10000000    28.52000000
   O    103.86000000    52.99000000    29.68000000
   C    102.85000000    50.67000000    28.47000000
   C    104.24000000    50.10000000    28.26000000
   O    104.96000000    50.58000000    27.36000000
   O    104.53000000    49.06000000    28.90000000
   H    100.81000000    52.33000000    28.72000000
   H    103.03000000    51.86000000    26.77000000
   H    102.10000000    49.95000000    28.16000000
   H    102.74000000    50.79000000    29.55000000
   N    103.81000000    54.15000000    27.75000000
   C    104.44000000    55.36000000    28.24000000
   C    103.47000000    56.53000000    28.10000000
   O    102.67000000    56.57000000    27.17000000
   C    105.70000000    55.53000000    27.41000000
   H    103.55000000    54.11000000    26.78000000
   H    104.76000000    55.25000000    29.28000000
   H    105.46000000    55.74000000    26.37000000
   H    106.24000000    56.39000000    27.80000000
   H    106.43000000    54.71000000    27.41000000
   N    103.40000000    57.49000000    29.03000000
   C    104.40000000    57.90000000    29.99000000
   C    104.05000000    57.60000000    31.45000000
   O    102.95000000    57.20000000    31.82000000
   C    104.72000000    59.37000000    29.74000000
   C    104.78000000    59.82000000    28.29000000
   O    103.73000000    60.26000000    27.77000000
   O    105.86000000    59.77000000    27.65000000
   H    102.58000000    58.07000000    28.89000000
   H    105.35000000    57.46000000    29.70000000
   H    105.62000000    59.64000000    30.30000000
   H    103.86000000    59.85000000    30.20000000
   N    105.08000000    57.62000000    32.30000000
   C    104.97000000    57.03000000    33.62000000
   C    104.59000000    55.56000000    33.57000000
   O    104.99000000    54.81000000    32.69000000
   H    105.99000000    57.85000000    31.92000000
   H    104.29000000    57.66000000    34.20000000
   H    105.92000000    57.13000000    34.13000000
   N    103.96000000    55.02000000    34.62000000
   C    103.51000000    55.64000000    35.85000000
   C    102.28000000    56.53000000    35.74000000
   O    101.66000000    57.03000000    36.68000000
   C    103.25000000    54.53000000    36.86000000
   C    104.40000000    53.54000000    37.01000000
   N    104.87000000    53.29000000    38.23000000
   O    104.88000000    52.92000000    36.06000000
   H    103.95000000    54.01000000    34.63000000
   H    104.27000000    56.33000000    36.22000000
   H    102.40000000    53.94000000    36.51000000
   H    102.90000000    55.04000000    37.75000000
   H    104.60000000    53.77000000    39.07000000
   H    105.54000000    52.53000000    38.28000000
   N    101.81000000    56.81000000    34.52000000
   C    100.63000000    57.60000000    34.27000000
   C    100.83000000    59.11000000    34.25000000
   O    100.11000000    59.90000000    34.86000000
   H    102.35000000    56.45000000    33.74000000
   H     99.83000000    57.41000000    35.00000000
   H    100.24000000    57.26000000    33.31000000
   N    101.88000000    59.56000000    33.55000000
   C    102.24000000    60.96000000    33.47000000
   C    101.56000000    61.66000000    32.31000000
   O    102.16000000    61.94000000    31.27000000
   C    103.76000000    61.08000000    33.51000000
   C    104.20000000    62.53000000    33.63000000
   O    104.27000000    60.37000000    34.62000000
   H    102.33000000    58.86000000    32.99000000
   H    101.92000000    61.46000000    34.39000000
   H    104.19000000    60.70000000    32.58000000
   H    105.23000000    60.43000000    34.54000000
   H    103.73000000    63.14000000    34.41000000
   H    105.28000000    62.52000000    33.78000000
   H    103.93000000    63.09000000    32.73000000
   N    100.22000000    61.74000000    32.38000000
   C     99.20000000    62.26000000    31.50000000
   C     98.93000000    63.75000000    31.69000000
   O     99.02000000    64.23000000    32.82000000
   C     97.91000000    61.45000000    31.53000000
   C     98.10000000    59.99000000    31.14000000
   C     97.24000000    61.34000000    32.89000000
   C     99.24000000    59.58000000    30.21000000
   H     99.82000000    61.41000000    33.25000000
   H     99.53000000    62.20000000    30.46000000
   H     97.24000000    61.95000000    30.82000000
   H     97.14000000    59.57000000    30.84000000
   H     98.38000000    59.51000000    32.08000000
   H     97.19000000    62.35000000    33.28000000
   H     96.22000000    60.97000000    32.76000000
   H     97.83000000    60.75000000    33.60000000
   H     99.30000000    60.26000000    29.36000000
   H    100.20000000    59.54000000    30.73000000
   H     99.04000000    58.58000000    29.83000000
   N     98.46000000    64.45000000    30.66000000
   C     98.00000000    65.82000000    30.73000000
   C     96.89000000    66.08000000    29.72000000
   O     96.83000000    65.41000000    28.69000000
   C     99.16000000    66.78000000    30.51000000
   C    100.21000000    66.27000000    29.53000000
   O    101.19000000    65.60000000    29.92000000
   O    100.00000000    66.41000000    28.31000000
   H     98.67000000    64.10000000    29.74000000
   H     97.57000000    66.03000000    31.72000000
   H     99.64000000    66.82000000    31.48000000
   H     98.79000000    67.77000000    30.23000000
   N     95.93000000    66.98000000    29.93000000
   C     94.90000000    67.31000000    28.96000000
   C     94.17000000    66.08000000    28.43000000
   O     93.74000000    65.20000000    29.17000000
   C     93.86000000    68.18000000    29.65000000
   C     92.77000000    68.62000000    28.70000000
   C     91.59000000    67.86000000    28.55000000
   C     93.00000000    69.75000000    27.91000000
   C     90.71000000    68.16000000    27.51000000
   C     92.10000000    70.06000000    26.88000000
   C     90.99000000    69.24000000    26.67000000
   H     96.02000000    67.46000000    30.82000000
   H     95.37000000    67.90000000    28.17000000
   H     94.41000000    69.09000000    29.88000000
   H     93.47000000    67.63000000    30.51000000
   H     91.50000000    66.95000000    29.12000000
   H     93.76000000    70.45000000    28.20000000
   H     89.78000000    67.61000000    27.44000000
   H     92.32000000    70.98000000    26.35000000
   H     90.25000000    69.46000000    25.90000000
   N     94.01000000    65.91000000    27.12000000
   C     93.19000000    64.81000000    26.64000000
   C     93.75000000    63.40000000    26.78000000
   O     93.20000000    62.45000000    26.21000000
   C     92.93000000    65.15000000    25.18000000
   C     93.34000000    66.61000000    24.93000000
   C     94.35000000    66.83000000    26.05000000
   H     92.28000000    64.89000000    27.24000000
   H     93.62000000    64.57000000    24.57000000
   H     91.91000000    65.03000000    24.82000000
   H     93.76000000    66.69000000    23.93000000
   H     92.46000000    67.24000000    25.05000000
   H     95.37000000    66.75000000    25.69000000
   H     94.28000000    67.89000000    26.31000000
   N     94.90000000    63.16000000    27.41000000
   C     95.59000000    61.90000000    27.59000000
   C     95.03000000    61.05000000    28.72000000
   O     95.18000000    59.83000000    28.70000000
   C     97.06000000    62.15000000    27.91000000
   C     97.85000000    62.68000000    26.73000000
   C     99.30000000    63.04000000    27.04000000
   O     99.62000000    63.38000000    28.19000000
   O    100.16000000    63.02000000    26.13000000
   H     95.40000000    64.00000000    27.68000000
   H     95.53000000    61.24000000    26.72000000
   H     97.47000000    61.20000000    28.24000000
   H     97.17000000    62.79000000    28.79000000
   H     97.36000000    63.56000000    26.30000000
   H     97.83000000    61.82000000    26.07000000
   N     94.26000000    61.70000000    29.60000000
   C     93.46000000    61.01000000    30.59000000
   H     92.48300000    60.77400000    30.16700000
   H     93.96000000    60.08700000    30.88300000
   H     93.33200000    61.64900000    31.46400000
   H     94.20000000    62.70000000    29.53000000
  Ca    101.78900000    64.66000000    27.59000000
   O    102.33900000    67.36000000    27.28000000
   H    103.04900000    67.98000000    27.49000000
   H    101.59900000    67.67000000    27.80000000
   O    104.31900000    65.25000000    28.76000000
   H    105.01900000    65.75000000    28.33000000
   H    104.44900000    65.43000000    29.70000000
   O    101.51900000    65.57000000    24.90000000
   H    101.10900000    64.86000000    24.40000000
   H    101.58900000    66.29000000    24.28000000
   O    103.60900000    63.91000000    25.78000000
   H    103.44900000    63.98000000    24.83000000
   H    104.34900000    63.32000000    25.86000000
   O    102.72900000    62.48000000    28.71000000
   H    102.85900000    61.60000000    28.35000000
   H    102.73900000    62.36000000    29.65000000

Ca 1.00



