%chk=loop1.holoCaM-CaMKII.run41.water2.chk
%nprocshared=20
%mem=10GB
%nosave
#b3lyp/svp scf=(tight,noincore,xqc) Test 
#IOP(5/87=12) Density=Current Pop=(MK,readradii) iop(6/33=2) iop(6/42=6)

loop1.holoCaM-CaMKII.run41.water2 

   0  1 
   C     -2.14600000    33.17000000    -6.06600000
   C     -1.86600000    32.01000000    -7.00600000
   O     -2.00600000    30.88000000    -6.54600000
   H     -3.16400000    33.09000000    -5.68500000
   H     -1.44300000    33.14100000    -5.23300000
   H     -2.03300000    34.11100000    -6.60500000
   N     -1.44600000    32.21000000    -8.25600000
   C     -1.36600000    31.15000000    -9.24600000
   C     -0.09600000    30.32000000    -9.17600000
   O      0.94400000    30.85000000    -9.57600000
   C     -1.63600000    31.75000000   -10.62600000
   C     -1.64600000    30.71000000   -11.73600000
   O     -1.52600000    31.12000000   -12.91600000
   O     -1.61600000    29.52000000   -11.38600000
   H     -1.37600000    33.13000000    -8.65600000
   H     -2.14600000    30.43000000    -8.99600000
   H     -0.88600000    32.52000000   -10.84600000
   H     -2.61600000    32.23000000   -10.62600000
   N     -0.18600000    29.10000000    -8.65600000
   C      1.01400000    28.37000000    -8.25600000
   C      1.66400000    27.62000000    -9.40600000
   O      2.86400000    27.69000000    -9.67600000
   C      0.80400000    27.49000000    -7.03600000
   C      0.86400000    28.32000000    -5.75600000
   C      2.30400000    28.46000000    -5.27600000
   C      2.23400000    29.47000000    -4.13600000
   N      2.28400000    30.87000000    -4.58600000
   H     -1.09600000    28.68000000    -8.50600000
   H      1.80400000    29.05000000    -7.95600000
   H      1.56400000    26.73000000    -6.89600000
   H     -0.17600000    27.03000000    -7.19600000
   H      0.20400000    27.90000000    -4.99600000
   H      0.51400000    29.32000000    -6.01600000
   H      2.99400000    28.85000000    -6.02600000
   H      2.62400000    27.48000000    -4.89600000
   H      2.99400000    29.29000000    -3.36600000
   H      1.31400000    29.25000000    -3.58600000
   H      3.22400000    31.05000000    -4.89600000
   H      1.75400000    31.10000000    -5.41600000
   H      2.01400000    31.51000000    -3.84600000
   N      0.85400000    27.01000000   -10.26600000
   C      1.31400000    26.28000000   -11.42600000
   C      1.69400000    27.14000000   -12.62600000
   O      2.49400000    26.77000000   -13.47600000
   C      0.52400000    25.06000000   -11.91600000
   C     -0.99600000    25.18000000   -11.79600000
   O     -1.47600000    26.30000000   -11.50600000
   O     -1.65600000    24.13000000   -11.84600000
   H     -0.11600000    26.94000000    -9.98600000
   H      2.26400000    25.81000000   -11.16600000
   H      0.73400000    24.18000000   -11.31600000
   H      0.66400000    24.76000000   -12.94600000
   N      1.15400000    28.35000000   -12.76600000
   C      1.54400000    29.31000000   -13.77600000
   C      0.74400000    29.27000000   -15.06600000
   O      1.25400000    28.84000000   -16.10600000
   H      0.50400000    28.63000000   -12.03600000
   H      2.61400000    29.18000000   -13.93600000
   H      1.35400000    30.26000000   -13.27600000
   N     -0.56600000    29.53000000   -15.01600000
   C     -1.50600000    29.28000000   -16.09600000
   C     -2.53600000    30.37000000   -16.36600000
   O     -3.42600000    30.12000000   -17.17600000
   C     -2.21600000    27.95000000   -15.87600000
   C     -2.99600000    27.87000000   -14.57600000
   O     -3.58600000    28.86000000   -14.07600000
   O     -3.29600000    26.80000000   -14.00600000
   H     -0.90600000    29.96000000   -14.16600000
   H     -0.94600000    29.14000000   -17.01600000
   H     -1.40600000    27.23000000   -15.73600000
   H     -2.81600000    27.75000000   -16.76600000
   N     -2.55600000    31.48000000   -15.61600000
   C     -3.58600000    32.47000000   -15.84600000
   C     -4.97600000    32.11000000   -15.34600000
   O     -5.94600000    32.76000000   -15.72600000
   H     -1.92600000    31.66000000   -14.85600000
   H     -3.50600000    32.91000000   -16.84600000
   H     -3.26600000    33.27000000   -15.17600000
   N     -5.04600000    31.20000000   -14.37600000
   C     -6.26600000    30.91000000   -13.64600000
   C     -5.90600000    30.63000000   -12.19600000
   O     -4.82600000    30.18000000   -11.81600000
   C     -7.16600000    29.79000000   -14.15600000
   C     -8.19600000    30.13000000   -15.22600000
   O     -6.31600000    28.73000000   -14.56600000
   H     -4.24600000    30.71000000   -13.98600000
   H     -6.83600000    31.84000000   -13.60600000
   H     -7.77600000    29.45000000   -13.31600000
   H     -5.40600000    29.02000000   -14.54600000
   H     -8.75600000    29.22000000   -15.45600000
   H     -8.98600000    30.85000000   -14.98600000
   H     -7.66600000    30.52000000   -16.08600000
   N     -6.83600000    30.91000000   -11.28600000
   C     -6.76600000    30.70000000    -9.85600000
   C     -7.88600000    29.82000000    -9.31600000
   O     -9.06600000    30.05000000    -9.57600000
   C     -6.72600000    32.03000000    -9.10600000
   C     -5.56600000    32.91000000    -9.56600000
   C     -6.66600000    31.94000000    -7.58600000
   C     -5.70600000    34.34000000    -9.03600000
   H     -7.44600000    31.65000000   -11.61600000
   H     -5.83600000    30.14000000    -9.69600000
   H     -7.64600000    32.58000000    -9.27600000
   H     -5.44600000    32.94000000   -10.64600000
   H     -4.65600000    32.51000000    -9.12600000
   H     -7.37600000    31.23000000    -7.15600000
   H     -5.72600000    31.44000000    -7.35600000
   H     -6.76600000    32.91000000    -7.10600000
   H     -5.63600000    34.37000000    -7.94600000
   H     -4.85600000    34.87000000    -9.47600000
   H     -6.63600000    34.77000000    -9.40600000
   N     -7.59600000    28.60000000    -8.86600000
   C     -8.51600000    27.68000000    -8.23600000
   C     -8.93600000    27.94000000    -6.80600000
   O     -8.34600000    28.81000000    -6.15600000
   C     -7.91600000    26.28000000    -8.35600000
   C     -7.51600000    25.84000000    -9.76600000
   O     -6.78600000    26.07000000    -7.53600000
   H     -6.62600000    28.30000000    -8.89600000
   H     -9.43600000    27.68000000    -8.82600000
   H     -8.68600000    25.55000000    -8.09600000
   H     -6.65600000    25.12000000    -7.55600000
   H     -8.34600000    25.86000000   -10.47600000
   H     -6.80600000    26.57000000   -10.14600000
   H     -6.89600000    24.95000000    -9.76600000
   N     -9.85600000    27.15000000    -6.24600000
   C    -10.34600000    27.21000000    -4.88600000
   C     -9.22600000    26.87000000    -3.91600000
   O     -9.09600000    27.45000000    -2.83600000
   C    -11.48600000    26.26000000    -4.54600000
   C    -12.87600000    26.74000000    -4.97600000
   O    -11.36600000    24.99000000    -5.15600000
   H    -10.34600000    26.50000000    -6.84600000
   H    -10.74600000    28.21000000    -4.68600000
   H    -11.44600000    26.19000000    -3.46600000
   H    -12.24600000    24.66000000    -5.33600000
   H    -13.74600000    26.14000000    -4.69600000
   H    -13.12600000    27.69000000    -4.51600000
   H    -12.83600000    26.95000000    -6.03600000
   N     -8.38600000    25.91000000    -4.31600000
   C     -7.10600000    25.71000000    -3.66600000
   C     -6.25600000    26.97000000    -3.62600000
   O     -5.66600000    27.29000000    -2.59600000
   C     -6.32600000    24.55000000    -4.26600000
   C     -4.96600000    24.30000000    -3.61600000
   C     -4.21600000    23.19000000    -4.34600000
   C     -2.79600000    23.05000000    -3.80600000
   N     -1.99600000    22.19000000    -4.69600000
   H     -8.63600000    25.36000000    -5.12600000
   H     -7.26600000    25.47000000    -2.60600000
   H     -6.14600000    24.83000000    -5.29600000
   H     -6.97600000    23.67000000    -4.33600000
   H     -5.18600000    23.96000000    -2.60600000
   H     -4.33600000    25.19000000    -3.61600000
   H     -4.29600000    23.36000000    -5.41600000
   H     -4.71600000    22.22000000    -4.25600000
   H     -2.80600000    22.58000000    -2.81600000
   H     -2.27600000    24.01000000    -3.71600000
   H     -2.06600000    22.40000000    -5.68600000
   H     -1.02600000    22.17000000    -4.43600000
   H     -2.31600000    21.23000000    -4.63600000
   N     -6.16600000    27.70000000    -4.74600000
   C     -5.12600000    28.69000000    -4.94600000
   C     -5.46600000    29.99000000    -4.22600000
   O     -4.55600000    30.61000000    -3.68600000
   C     -4.88600000    29.00000000    -6.41600000
   C     -3.99600000    27.86000000    -6.90600000
   C     -3.83600000    28.03000000    -8.40600000
   O     -4.83600000    28.08000000    -9.15600000
   O     -2.70600000    27.94000000    -8.93600000
   H     -6.69600000    27.38000000    -5.54600000
   H     -4.20600000    28.40000000    -4.44600000
   H     -4.45600000    29.99000000    -6.57600000
   H     -5.83600000    28.97000000    -6.94600000
   H     -4.43600000    26.88000000    -6.71600000
   H     -3.05600000    27.92000000    -6.35600000
   N     -6.70600000    30.47000000    -4.29600000
   C     -7.20600000    31.59000000    -3.52600000
   H     -8.20700000    31.36100000    -3.16100000
   H     -6.54500000    31.77400000    -2.67900000
   H     -7.24400000    32.47800000    -4.15700000
   H     -7.21600000    29.96000000    -5.00600000
  Ca     -3.58600000    27.83000000   -11.48600000
   O     -3.99600000    24.91000000   -10.87600000
   H     -3.37600000    24.35000000   -11.33600000
   H     -4.82600000    24.42000000   -10.90600000
   O     -5.92600000    26.81000000   -12.44600000
   H     -5.98600000    25.88000000   -12.65600000
   H     -6.41600000    27.25000000   -13.14600000

Ca 1.00



