%chk=loop3.apoCaM-CA-Ng.Init31.run10.water5.chk
%nprocshared=20
%mem=10GB
%nosave
#b3lyp/svp scf=(tight,noincore,xqc) Test 
#IOP(5/87=12) Density=Current Pop=(MK,readradii) iop(6/33=2) iop(6/42=6)

loop3.apoCaM-CA-Ng.Init31.run10.water5 

   0  1 
   C     83.32000000    72.87000000    33.75000000
   C     83.14000000    71.93000000    34.94000000
   O     82.04000000    71.68000000    35.43000000
   H     84.36500000    72.86700000    33.44000000
   H     82.69600000    72.53300000    32.92200000
   H     83.02900000    73.88000000    34.03700000
   N     84.24000000    71.33000000    35.40000000
   C     84.40000000    70.41000000    36.50000000
   C     84.93000000    70.98000000    37.80000000
   O     84.44000000    70.57000000    38.85000000
   C     85.33000000    69.26000000    36.13000000
   C     86.65000000    69.52000000    35.42000000
   O     86.90000000    70.70000000    35.12000000
   O     87.40000000    68.61000000    35.00000000
   H     85.13000000    71.53000000    34.98000000
   H     83.43000000    70.04000000    36.84000000
   H     84.74000000    68.67000000    35.43000000
   H     85.55000000    68.52000000    36.90000000
   N     85.88000000    71.93000000    37.88000000
   C     86.17000000    72.63000000    39.11000000
   C     86.81000000    71.70000000    40.13000000
   O     87.80000000    71.02000000    39.90000000
   C     87.04000000    73.84000000    38.78000000
   C     86.47000000    74.65000000    37.62000000
   C     87.21000000    75.96000000    37.35000000
   C     87.00000000    77.05000000    38.39000000
   N     85.79000000    77.84000000    38.09000000
   H     86.33000000    72.19000000    37.02000000
   H     85.27000000    73.10000000    39.52000000
   H     88.06000000    73.53000000    38.57000000
   H     87.10000000    74.45000000    39.69000000
   H     85.47000000    75.00000000    37.86000000
   H     86.30000000    74.06000000    36.73000000
   H     87.01000000    76.38000000    36.37000000
   H     88.28000000    75.72000000    37.31000000
   H     87.86000000    77.72000000    38.35000000
   H     87.06000000    76.64000000    39.39000000
   H     84.99000000    77.23000000    38.12000000
   H     85.73000000    78.48000000    38.87000000
   H     85.89000000    78.27000000    37.18000000
   N     86.29000000    71.67000000    41.36000000
   C     86.70000000    70.78000000    42.43000000
   C     85.98000000    69.44000000    42.37000000
   O     86.22000000    68.66000000    43.29000000
   C     86.36000000    71.44000000    43.76000000
   C     84.97000000    72.04000000    43.88000000
   O     84.35000000    71.85000000    44.95000000
   O     84.51000000    72.72000000    42.93000000
   H     85.59000000    72.36000000    41.60000000
   H     87.79000000    70.69000000    42.46000000
   H     87.06000000    72.21000000    44.07000000
   H     86.53000000    70.72000000    44.56000000
   N     85.10000000    69.21000000    41.40000000
   C     84.09000000    68.17000000    41.49000000
   C     84.55000000    66.81000000    40.99000000
   O     85.72000000    66.61000000    40.66000000
   H     84.96000000    69.92000000    40.70000000
   H     83.26000000    68.58000000    40.90000000
   H     83.87000000    68.16000000    42.55000000
   N     83.72000000    65.76000000    40.96000000
   C     82.28000000    65.81000000    40.85000000
   C     81.78000000    65.13000000    39.58000000
   O     81.62000000    63.92000000    39.50000000
   C     81.55000000    65.20000000    42.04000000
   C     82.09000000    65.84000000    43.32000000
   N     83.15000000    65.28000000    43.90000000
   O     81.71000000    66.92000000    43.75000000
   H     84.19000000    64.89000000    40.75000000
   H     81.89000000    66.82000000    40.82000000
   H     81.69000000    64.13000000    42.17000000
   H     80.49000000    65.43000000    41.94000000
   H     83.47000000    64.38000000    43.58000000
   H     83.42000000    65.67000000    44.80000000
   N     81.79000000    65.84000000    38.45000000
   C     82.04000000    67.25000000    38.22000000
   C     80.82000000    68.13000000    38.44000000
   O     80.91000000    69.33000000    38.71000000
   H     81.52000000    65.28000000    37.65000000
   H     82.40000000    67.29000000    37.20000000
   H     82.82000000    67.72000000    38.82000000
   N     79.64000000    67.53000000    38.23000000
   C     78.42000000    68.01000000    38.83000000
   C     78.46000000    68.05000000    40.35000000
   O     78.71000000    67.02000000    40.97000000
   C     77.27000000    67.15000000    38.31000000
   C     76.92000000    67.31000000    36.85000000
   C     77.05000000    68.54000000    36.20000000
   C     76.58000000    66.14000000    36.16000000
   C     76.76000000    68.63000000    34.83000000
   C     76.29000000    66.26000000    34.80000000
   C     76.46000000    67.47000000    34.10000000
   O     76.00000000    67.63000000    32.82000000
   H     79.64000000    66.53000000    38.04000000
   H     78.20000000    69.02000000    38.47000000
   H     76.37000000    67.43000000    38.85000000
   H     77.48000000    66.12000000    38.60000000
   H     77.36000000    69.44000000    36.70000000
   H     76.35000000    65.25000000    36.74000000
   H     76.80000000    69.61000000    34.37000000
   H     75.92000000    65.47000000    34.15000000
   H     75.69000000    66.78000000    32.50000000
   N     78.33000000    69.23000000    40.96000000
   C     78.75000000    69.42000000    42.33000000
   C     77.78000000    68.82000000    43.33000000
   O     78.13000000    68.22000000    44.35000000
   C     79.07000000    70.90000000    42.55000000
   C     80.28000000    71.34000000    41.73000000
   C     77.80000000    71.70000000    42.29000000
   C     81.59000000    70.64000000    42.10000000
   H     78.11000000    70.05000000    40.40000000
   H     79.71000000    68.90000000    42.38000000
   H     79.33000000    70.97000000    43.61000000
   H     80.39000000    72.40000000    41.93000000
   H     80.08000000    71.22000000    40.67000000
   H     77.37000000    71.30000000    41.36000000
   H     77.10000000    71.56000000    43.11000000
   H     78.07000000    72.75000000    42.14000000
   H     81.51000000    69.56000000    42.24000000
   H     82.35000000    70.90000000    41.37000000
   H     82.03000000    71.06000000    43.00000000
   N     76.51000000    69.01000000    42.96000000
   C     75.38000000    68.80000000    43.84000000
   C     74.74000000    70.14000000    44.15000000
   O     74.54000000    70.98000000    43.27000000
   C     74.25000000    68.12000000    43.07000000
   O     74.59000000    66.76000000    42.94000000
   H     76.33000000    69.33000000    42.02000000
   H     75.59000000    68.15000000    44.69000000
   H     74.09000000    68.48000000    42.05000000
   H     73.35000000    68.28000000    43.67000000
   H     74.37000000    66.32000000    43.77000000
   N     74.31000000    70.26000000    45.40000000
   C     73.72000000    71.44000000    46.00000000
   C     74.72000000    72.49000000    46.45000000
   O     75.89000000    72.20000000    46.71000000
   C     72.74000000    70.90000000    47.04000000
   H     74.37000000    69.45000000    46.00000000
   H     73.21000000    71.86000000    45.13000000
   H     73.26000000    70.24000000    47.73000000
   H     72.17000000    71.72000000    47.47000000
   H     71.99000000    70.27000000    46.57000000
   N     74.23000000    73.72000000    46.62000000
   C     74.87000000    74.85000000    47.27000000
   C     76.12000000    75.38000000    46.59000000
   O     76.98000000    75.90000000    47.31000000
   C     74.77000000    74.78000000    48.79000000
   H     73.27000000    73.90000000    46.37000000
   H     74.14000000    75.64000000    47.07000000
   H     74.79000000    75.78000000    49.23000000
   H     73.79000000    74.41000000    49.09000000
   H     75.50000000    74.13000000    49.26000000
   N     76.42000000    75.11000000    45.32000000
   C     77.68000000    75.47000000    44.71000000
   C     77.60000000    76.11000000    43.33000000
   O     78.55000000    76.68000000    42.78000000
   C     78.69000000    74.33000000    44.65000000
   C     79.00000000    73.82000000    46.06000000
   C     80.02000000    72.69000000    46.09000000
   O     80.99000000    72.72000000    45.30000000
   O     80.07000000    71.75000000    46.91000000
   H     75.75000000    74.63000000    44.73000000
   H     78.10000000    76.31000000    45.27000000
   H     79.62000000    74.62000000    44.17000000
   H     78.23000000    73.52000000    44.09000000
   H     78.11000000    73.39000000    46.52000000
   H     79.27000000    74.66000000    46.69000000
   N     76.36000000    76.30000000    42.89000000
   C     76.12000000    77.17000000    41.75000000
   H     75.33200000    77.88200000    41.99600000
   H     77.03400000    77.71100000    41.50600000
   H     75.81200000    76.57100000    40.89300000
   H     75.62000000    75.90000000    43.45000000
  Ca     82.63000000    70.87000000    46.39000000
   O     85.03000000    70.15000000    47.82000000
   H     85.57000000    70.89000000    48.08000000
   H     85.65000000    69.43000000    47.72000000
   O     82.98000000    72.85000000    48.21000000
   H     83.70000000    73.47000000    48.24000000
   H     82.68000000    72.79000000    49.12000000
   O     84.14000000    68.99000000    45.23000000
   H     84.06000000    68.07000000    45.48000000
   H     84.92000000    69.01000000    44.67000000
   O     81.07000000    68.93000000    45.26000000
   H     81.53000000    68.24000000    44.79000000
   H     80.15000000    68.67000000    45.24000000
   O     81.94000000    69.25000000    48.43000000
   H     81.96000000    69.41000000    49.38000000
   H     82.00000000    68.30000000    48.35000000

Ca 1.00



