%chk=loop2.holoCaM.run94.water1.chk
%nprocshared=20
%mem=10GB
%nosave
#b3lyp/svp scf=(tight,noincore,xqc) Test 
#IOP(5/87=12) Density=Current Pop=(MK,readradii) iop(6/33=2) iop(6/42=6)

loop2.holoCaM.run94.water1 

   -2  1 
   C     24.47000000    57.68000000    16.89000000
   C     23.71000000    57.10000000    18.07000000
   O     24.22000000    56.24000000    18.78000000
   H     25.46500000    57.23700000    16.84700000
   H     23.93400000    57.45800000    15.96700000
   H     24.55800000    58.76000000    17.00900000
   N     22.49000000    57.57000000    18.36000000
   C     21.88000000    57.26000000    19.63000000
   C     21.25000000    55.87000000    19.61000000
   O     20.25000000    55.63000000    18.94000000
   C     20.81000000    58.32000000    19.89000000
   C     20.27000000    58.26000000    21.31000000
   O     20.58000000    57.26000000    21.98000000
   O     19.50000000    59.19000000    21.63000000
   H     22.16000000    58.36000000    17.81000000
   H     22.67000000    57.30000000    20.38000000
   H     19.93000000    58.25000000    19.24000000
   H     21.24000000    59.31000000    19.76000000
   N     21.91000000    54.92000000    20.28000000
   C     21.67000000    53.50000000    20.09000000
   C     20.49000000    52.86000000    20.80000000
   O     19.98000000    51.79000000    20.47000000
   C     22.99000000    52.74000000    20.20000000
   H     22.70000000    55.21000000    20.83000000
   H     21.42000000    53.38000000    19.04000000
   H     23.26000000    52.65000000    21.25000000
   H     22.93000000    51.77000000    19.70000000
   H     23.85000000    53.27000000    19.80000000
   N     20.02000000    53.57000000    21.83000000
   C     18.70000000    53.43000000    22.41000000
   C     17.72000000    54.55000000    22.09000000
   O     16.60000000    54.65000000    22.59000000
   C     18.80000000    53.07000000    23.89000000
   C     19.73000000    53.94000000    24.73000000
   O     19.93000000    53.70000000    25.94000000
   O     20.27000000    54.93000000    24.20000000
   H     20.60000000    54.34000000    22.14000000
   H     18.17000000    52.58000000    21.99000000
   H     19.16000000    52.05000000    24.04000000
   H     17.82000000    53.27000000    24.33000000
   N     18.14000000    55.48000000    21.23000000
   C     17.35000000    56.62000000    20.81000000
   C     16.76000000    57.40000000    21.98000000
   O     15.58000000    57.74000000    21.84000000
   H     19.10000000    55.45000000    20.91000000
   H     16.53000000    56.06000000    20.38000000
   H     17.91000000    57.14000000    20.03000000
   N     17.48000000    57.48000000    23.10000000
   C     16.78000000    57.85000000    24.31000000
   C     16.74000000    59.37000000    24.35000000
   O     15.79000000    59.87000000    24.96000000
   C     17.45000000    57.22000000    25.52000000
   C     18.69000000    58.00000000    25.94000000
   N     18.58000000    58.99000000    26.83000000
   O     19.78000000    57.75000000    25.42000000
   H     18.41000000    57.09000000    23.07000000
   H     15.81000000    57.35000000    24.31000000
   H     17.76000000    56.18000000    25.39000000
   H     16.76000000    57.17000000    26.37000000
   H     17.72000000    59.15000000    27.33000000
   H     19.37000000    59.60000000    26.98000000
   N     17.56000000    60.12000000    23.61000000
   C     17.65000000    61.57000000    23.68000000
   C     18.97000000    62.11000000    24.22000000
   O     19.24000000    63.31000000    24.18000000
   H     18.26000000    59.60000000    23.11000000
   H     16.91000000    61.95000000    24.38000000
   H     17.42000000    61.99000000    22.71000000
   N     19.83000000    61.26000000    24.78000000
   C     21.19000000    61.53000000    25.18000000
   C     22.21000000    60.52000000    24.68000000
   O     21.87000000    59.39000000    24.33000000
   C     21.30000000    61.59000000    26.70000000
   C     20.30000000    62.53000000    27.38000000
   O     21.18000000    60.32000000    27.31000000
   H     19.46000000    60.32000000    24.84000000
   H     21.43000000    62.51000000    24.75000000
   H     22.29000000    61.98000000    26.94000000
   H     21.07000000    60.45000000    28.25000000
   H     20.65000000    62.85000000    28.36000000
   H     20.22000000    63.40000000    26.73000000
   H     19.30000000    62.11000000    27.52000000
   N     23.46000000    60.99000000    24.71000000
   C     24.66000000    60.31000000    24.26000000
   C     25.47000000    59.67000000    25.38000000
   O     25.80000000    60.39000000    26.32000000
   C     25.56000000    61.32000000    23.55000000
   C     24.99000000    61.79000000    22.22000000
   C     27.03000000    60.94000000    23.38000000
   C     24.84000000    60.63000000    21.24000000
   H     23.69000000    61.84000000    25.21000000
   H     24.33000000    59.53000000    23.58000000
   H     25.53000000    62.23000000    24.15000000
   H     25.59000000    62.62000000    21.86000000
   H     23.98000000    62.13000000    22.43000000
   H     27.53000000    60.92000000    24.35000000
   H     27.09000000    59.89000000    23.08000000
   H     27.47000000    61.76000000    22.82000000
   H     24.10000000    59.90000000    21.56000000
   H     24.48000000    61.09000000    20.32000000
   H     25.80000000    60.16000000    21.03000000
   N     25.72000000    58.37000000    25.26000000
   C     26.65000000    57.61000000    26.08000000
   C     28.05000000    57.72000000    25.49000000
   O     28.18000000    58.08000000    24.32000000
   C     26.14000000    56.18000000    26.11000000
   C     24.68000000    55.98000000    26.51000000
   O     23.88000000    55.61000000    25.62000000
   O     24.30000000    56.31000000    27.65000000
   H     25.47000000    58.08000000    24.32000000
   H     26.68000000    58.04000000    27.08000000
   H     26.75000000    55.63000000    26.83000000
   H     26.49000000    55.85000000    25.13000000
   N     29.11000000    57.34000000    26.21000000
   C     30.47000000    57.37000000    25.73000000
   C     30.65000000    56.58000000    24.44000000
   O     31.12000000    57.16000000    23.47000000
   C     31.52000000    57.29000000    26.84000000
   C     32.96000000    57.26000000    26.38000000
   C     33.53000000    58.45000000    25.92000000
   C     33.79000000    56.16000000    26.59000000
   C     34.89000000    58.50000000    25.57000000
   C     35.12000000    56.18000000    26.17000000
   C     35.68000000    57.35000000    25.62000000
   H     28.96000000    56.88000000    27.10000000
   H     30.49000000    58.41000000    25.42000000
   H     31.36000000    56.35000000    27.37000000
   H     31.27000000    58.11000000    27.52000000
   H     32.96000000    59.36000000    25.82000000
   H     33.37000000    55.28000000    27.06000000
   H     35.33000000    59.38000000    25.12000000
   H     35.72000000    55.28000000    26.19000000
   H     36.68000000    57.38000000    25.23000000
   N     30.23000000    55.32000000    24.34000000
   C     30.35000000    54.51000000    23.13000000
   C     29.80000000    55.22000000    21.90000000
   O     30.46000000    55.20000000    20.87000000
   C     29.57000000    53.22000000    23.38000000
   C     29.70000000    52.98000000    24.88000000
   C     29.80000000    54.42000000    25.39000000
   H     31.42000000    54.32000000    23.07000000
   H     28.53000000    53.45000000    23.13000000
   H     29.95000000    52.41000000    22.76000000
   H     28.79000000    52.51000000    25.27000000
   H     30.57000000    52.43000000    25.23000000
   H     28.81000000    54.82000000    25.63000000
   H     30.44000000    54.48000000    26.27000000
   N     28.67000000    55.93000000    21.99000000
   C     28.09000000    56.66000000    20.88000000
   C     28.79000000    57.98000000    20.58000000
   O     28.95000000    58.43000000    19.45000000
   C     26.65000000    56.95000000    21.29000000
   C     25.72000000    55.79000000    21.64000000
   C     24.41000000    56.18000000    22.32000000
   O     24.28000000    57.30000000    22.86000000
   O     23.51000000    55.33000000    22.42000000
   H     28.25000000    55.81000000    22.90000000
   H     28.07000000    56.12000000    19.93000000
   H     26.14000000    57.49000000    20.49000000
   H     26.71000000    57.60000000    22.16000000
   H     26.18000000    55.12000000    22.37000000
   H     25.44000000    55.21000000    20.76000000
   N     29.57000000    58.45000000    21.57000000
   C     30.28000000    59.70000000    21.50000000
   H     31.23700000    59.54600000    21.00100000
   H     29.68900000    60.42300000    20.93800000
   H     30.45300000    60.07700000    22.50800000
   H     29.39000000    58.09000000    22.50000000
  Ca     21.94000000    56.82000000    24.30000000
   O     22.31000000    57.95000000    26.68000000
   H     22.13000000    58.77000000    27.14000000
   H     22.79000000    57.42000000    27.32000000

Ca 1.00



