%chk=loop4.apoCaM-CA-Ng.Init31.run26.water4.chk
%nprocshared=20
%mem=10GB
%nosave
#b3lyp/svp scf=(tight,noincore,xqc) Test 
#IOP(5/87=12) Density=Current Pop=(MK,readradii) iop(6/33=2) iop(6/42=6)

loop4.apoCaM-CA-Ng.Init31.run26.water4 

   -3  1 
   C     86.80000000    32.51000000    88.57000000
   C     87.99000000    31.69000000    89.05000000
   O     89.14000000    32.01000000    88.77000000
   H     85.98000000    32.40900000    89.28000000
   H     87.08700000    33.55900000    88.49500000
   H     86.48000000    32.14900000    87.59200000
   N     87.96000000    30.63000000    89.86000000
   C     86.98000000    30.26000000    90.87000000
   C     87.39000000    30.53000000    92.31000000
   O     86.54000000    30.29000000    93.16000000
   C     86.92000000    28.74000000    90.70000000
   C     86.47000000    28.34000000    89.30000000
   O     87.14000000    27.43000000    88.77000000
   O     85.46000000    28.87000000    88.78000000
   H     88.85000000    30.17000000    89.92000000
   H     86.03000000    30.78000000    90.74000000
   H     86.21000000    28.37000000    91.44000000
   H     87.86000000    28.32000000    91.04000000
   N     88.64000000    30.91000000    92.59000000
   C     89.18000000    31.16000000    93.91000000
   C     89.95000000    30.04000000    94.58000000
   O     89.76000000    29.79000000    95.77000000
   C     89.91000000    32.50000000    93.91000000
   C     90.13000000    32.91000000    95.37000000
   C     91.16000000    32.45000000    93.04000000
   C     90.44000000    34.40000000    95.50000000
   H     89.29000000    30.92000000    91.83000000
   H     88.40000000    31.34000000    94.66000000
   H     89.27000000    33.21000000    93.38000000
   H     90.94000000    32.33000000    95.81000000
   H     89.21000000    32.85000000    95.94000000
   H     91.65000000    33.43000000    93.03000000
   H     91.88000000    31.70000000    93.36000000
   H     90.84000000    32.41000000    92.00000000
   H     89.58000000    35.01000000    95.24000000
   H     90.74000000    34.71000000    96.50000000
   H     91.26000000    34.71000000    94.85000000
   N     90.78000000    29.31000000    93.83000000
   C     91.51000000    28.17000000    94.33000000
   C     91.52000000    27.08000000    93.27000000
   O     91.46000000    27.43000000    92.09000000
   C     92.88000000    28.61000000    94.84000000
   C     93.49000000    27.67000000    95.87000000
   O     94.69000000    27.86000000    96.16000000
   O     92.82000000    26.67000000    96.19000000
   H     90.95000000    29.69000000    92.91000000
   H     90.99000000    27.83000000    95.23000000
   H     92.78000000    29.56000000    95.36000000
   H     93.48000000    28.67000000    93.93000000
   N     91.75000000    25.82000000    93.65000000
   C     91.85000000    24.66000000    92.78000000
   C     93.25000000    24.60000000    92.19000000
   O     94.13000000    25.38000000    92.54000000
   H     91.95000000    25.60000000    94.61000000
   H     91.06000000    24.65000000    92.04000000
   H     91.82000000    23.74000000    93.37000000
   N     93.42000000    23.66000000    91.25000000
   C     94.69000000    23.22000000    90.72000000
   C     95.43000000    22.17000000    91.53000000
   O     94.89000000    21.46000000    92.38000000
   C     94.45000000    22.64000000    89.33000000
   C     93.41000000    21.54000000    89.38000000
   O     93.87000000    20.37000000    89.29000000
   O     92.20000000    21.84000000    89.42000000
   H     92.65000000    23.12000000    90.90000000
   H     95.35000000    24.06000000    90.50000000
   H     95.39000000    22.26000000    88.93000000
   H     94.16000000    23.45000000    88.65000000
   N     96.76000000    22.04000000    91.48000000
   C     97.71000000    22.92000000    90.82000000
   C     98.84000000    23.39000000    91.73000000
   O     99.10000000    22.79000000    92.77000000
   H     97.10000000    21.16000000    91.83000000
   H     97.26000000    23.72000000    90.23000000
   H     98.06000000    22.26000000    90.02000000
   N     99.70000000    24.33000000    91.33000000
   C     99.70000000    25.30000000    90.26000000
   C     98.50000000    26.23000000    90.25000000
   O     97.67000000    26.14000000    91.16000000
   C    100.12000000    24.66000000    88.94000000
   C    101.57000000    25.01000000    88.60000000
   C    101.80000000    26.46000000    88.20000000
   N    103.03000000    26.92000000    87.94000000
   O    100.90000000    27.28000000    88.11000000
   H    100.39000000    24.55000000    92.04000000
   H    100.50000000    25.98000000    90.55000000
   H     99.44000000    25.07000000    88.19000000
   H     99.94000000    23.60000000    89.09000000
   H    101.84000000    24.33000000    87.79000000
   H    102.21000000    24.82000000    89.46000000
   H    103.87000000    26.39000000    88.08000000
   H    103.19000000    27.92000000    87.87000000
   N     98.40000000    27.24000000    89.38000000
   C     97.30000000    28.16000000    89.17000000
   C     97.85000000    29.57000000    89.05000000
   O     98.95000000    29.78000000    88.55000000
   C     96.32000000    27.73000000    88.09000000
   C     95.34000000    26.68000000    88.60000000
   C     97.08000000    27.22000000    86.86000000
   H     99.15000000    27.25000000    88.71000000
   H     96.70000000    28.35000000    90.06000000
   H     95.70000000    28.60000000    87.88000000
   H     94.48000000    26.78000000    87.94000000
   H     95.82000000    25.70000000    88.53000000
   H     94.96000000    26.95000000    89.58000000
   H     96.33000000    27.09000000    86.08000000
   H     97.83000000    27.92000000    86.52000000
   H     97.68000000    26.32000000    87.00000000
   N     97.04000000    30.59000000    89.36000000
   C     97.26000000    32.00000000    89.12000000
   C     96.91000000    32.53000000    87.74000000
   O     97.11000000    33.72000000    87.51000000
   C     96.39000000    32.70000000    90.16000000
   C     96.65000000    32.13000000    91.55000000
   N     97.39000000    32.92000000    92.33000000
   O     95.99000000    31.18000000    91.96000000
   H     96.17000000    30.37000000    89.82000000
   H     98.31000000    32.27000000    89.29000000
   H     95.38000000    32.48000000    89.81000000
   H     96.58000000    33.78000000    90.11000000
   H     97.79000000    33.78000000    91.98000000
   H     97.66000000    32.51000000    93.21000000
   N     96.42000000    31.71000000    86.80000000
   C     96.22000000    32.19000000    85.45000000
   C     95.19000000    31.37000000    84.68000000
   O     94.90000000    30.20000000    84.93000000
   C     97.54000000    32.26000000    84.69000000
   C     97.49000000    32.98000000    83.36000000
   C     97.65000000    32.21000000    82.20000000
   C     97.21000000    34.34000000    83.21000000
   C     97.60000000    32.79000000    80.92000000
   C     97.28000000    34.96000000    81.96000000
   C     97.45000000    34.18000000    80.79000000
   O     97.53000000    34.83000000    79.59000000
   H     96.25000000    30.73000000    86.98000000
   H     95.85000000    33.21000000    85.48000000
   H     97.74000000    31.20000000    84.51000000
   H     98.32000000    32.76000000    85.27000000
   H     97.80000000    31.15000000    82.25000000
   H     97.14000000    34.88000000    84.14000000
   H     97.61000000    32.09000000    80.10000000
   H     97.38000000    36.03000000    81.98000000
   H     97.37000000    35.77000000    79.70000000
   N     94.62000000    32.03000000    83.66000000
   C     93.72000000    31.42000000    82.71000000
   C     92.37000000    32.13000000    82.73000000
   O     92.19000000    33.22000000    82.19000000
   C     94.47000000    31.38000000    81.38000000
   C     93.72000000    30.59000000    80.32000000
   C     94.51000000    30.62000000    79.01000000
   O     94.12000000    31.47000000    78.18000000
   O     95.47000000    29.84000000    78.89000000
   H     95.04000000    32.92000000    83.42000000
   H     93.54000000    30.40000000    83.04000000
   H     95.44000000    30.91000000    81.51000000
   H     94.68000000    32.39000000    81.00000000
   H     92.78000000    31.13000000    80.17000000
   H     93.58000000    29.58000000    80.69000000
   N     91.40000000    31.51000000    83.40000000
   C     90.16000000    32.15000000    83.79000000
   C     90.34000000    33.24000000    84.84000000
   O     89.42000000    34.01000000    85.07000000
   C     89.08000000    31.10000000    84.01000000
   C     89.19000000    30.59000000    85.44000000
   C     88.24000000    29.42000000    85.64000000
   O     88.49000000    28.20000000    85.61000000
   O     87.05000000    29.72000000    85.88000000
   H     91.63000000    30.58000000    83.75000000
   H     89.72000000    32.74000000    82.99000000
   H     89.32000000    30.25000000    83.37000000
   H     88.13000000    31.54000000    83.69000000
   H     89.08000000    31.27000000    86.28000000
   H     90.15000000    30.07000000    85.39000000
   N     91.51000000    33.29000000    85.49000000
   C     91.84000000    34.25000000    86.53000000
   H     92.69200000    34.85100000    86.21200000
   H     90.98400000    34.90100000    86.70900000
   H     92.09200000    33.72000000    87.44800000
   H     92.14000000    32.54000000    85.28000000
  Ca     85.49000000    27.75000000    86.45000000
   O     85.55000000    28.18000000    83.84000000
   H     85.93000000    28.79000000    83.20000000
   H     84.64000000    28.08000000    83.55000000
   O     84.90000000    25.52000000    88.05000000
   H     84.78000000    24.71000000    87.56000000
   H     85.06000000    25.24000000    88.95000000
   O     83.09000000    26.72000000    85.69000000
   H     82.63000000    27.55000000    85.81000000
   H     82.42000000    26.05000000    85.79000000
   O     86.56000000    25.71000000    85.27000000
   H     86.84000000    24.84000000    85.55000000
   H     87.32000000    26.07000000    84.80000000

Ca 1.00



