%chk=loop3.apoCaM-CA-Ng.Init293.run5.water5.chk
%nprocshared=20
%mem=10GB
%nosave
#b3lyp/svp scf=(tight,noincore,xqc) Test 
#IOP(5/87=12) Density=Current Pop=(MK,readradii) iop(6/33=2) iop(6/42=6)

loop3.apoCaM-CA-Ng.Init293.run5.water5 

   0  1 
   C     52.05000000    66.19000000    49.47000000
   C     52.26000000    67.29000000    50.51000000
   O     52.98000000    68.20000000    50.12000000
   H     51.26300000    66.49100000    48.77800000
   H     52.97600000    66.02900000    48.91900000
   H     51.75900000    65.26700000    49.97100000
   N     51.90000000    67.22000000    51.79000000
   C     52.11000000    68.27000000    52.77000000
   C     51.23000000    69.48000000    52.49000000
   O     51.72000000    70.57000000    52.21000000
   C     51.92000000    67.89000000    54.23000000
   C     52.54000000    66.57000000    54.66000000
   O     53.68000000    66.64000000    55.16000000
   O     51.98000000    65.48000000    54.40000000
   H     51.35000000    66.40000000    52.01000000
   H     53.15000000    68.57000000    52.61000000
   H     50.88000000    67.78000000    54.52000000
   H     52.32000000    68.72000000    54.82000000
   N     49.92000000    69.27000000    52.65000000
   C     48.81000000    70.17000000    52.41000000
   C     48.90000000    71.52000000    53.12000000
   O     48.66000000    72.58000000    52.54000000
   C     47.47000000    69.50000000    52.71000000
   C     46.93000000    69.35000000    54.13000000
   C     47.73000000    68.35000000    54.96000000
   C     47.37000000    68.24000000    56.44000000
   N     47.92000000    69.36000000    57.22000000
   H     49.66000000    68.33000000    52.90000000
   H     48.81000000    70.42000000    51.35000000
   H     47.39000000    68.56000000    52.17000000
   H     46.78000000    70.20000000    52.24000000
   H     45.93000000    68.92000000    54.09000000
   H     46.93000000    70.34000000    54.60000000
   H     48.80000000    68.57000000    54.88000000
   H     47.59000000    67.34000000    54.59000000
   H     47.79000000    67.30000000    56.81000000
   H     46.31000000    68.34000000    56.66000000
   H     47.43000000    69.43000000    58.10000000
   H     48.88000000    69.32000000    57.50000000
   H     47.79000000    70.25000000    56.76000000
   N     49.30000000    71.54000000    54.39000000
   C     49.66000000    72.66000000    55.24000000
   C     50.34000000    72.20000000    56.52000000
   O     50.37000000    71.00000000    56.76000000
   C     48.48000000    73.59000000    55.48000000
   C     47.22000000    72.88000000    55.97000000
   O     47.31000000    71.94000000    56.79000000
   O     46.13000000    73.38000000    55.63000000
   H     49.56000000    70.64000000    54.77000000
   H     50.34000000    73.37000000    54.77000000
   H     48.13000000    74.08000000    54.57000000
   H     48.77000000    74.35000000    56.21000000
   N     50.98000000    73.09000000    57.28000000
   C     51.72000000    72.78000000    58.49000000
   C     50.94000000    73.12000000    59.75000000
   O     49.94000000    73.83000000    59.64000000
   H     51.11000000    74.00000000    56.86000000
   H     52.62000000    73.38000000    58.61000000
   H     51.82000000    71.70000000    58.41000000
   N     51.43000000    72.58000000    60.87000000
   C     50.82000000    72.71000000    62.18000000
   C     51.85000000    72.98000000    63.27000000
   O     51.57000000    72.74000000    64.44000000
   C     49.83000000    71.59000000    62.46000000
   C     48.98000000    71.10000000    61.29000000
   N     47.73000000    71.48000000    61.05000000
   O     49.42000000    70.31000000    60.46000000
   H     52.30000000    72.09000000    60.75000000
   H     50.30000000    73.67000000    62.11000000
   H     49.09000000    72.10000000    63.07000000
   H     50.40000000    70.78000000    62.92000000
   H     47.30000000    72.29000000    61.49000000
   H     47.42000000    71.31000000    60.10000000
   N     52.94000000    73.68000000    62.94000000
   C     53.99000000    74.15000000    63.82000000
   C     54.53000000    73.06000000    64.74000000
   O     55.10000000    72.07000000    64.30000000
   H     53.03000000    73.94000000    61.97000000
   H     53.65000000    75.00000000    64.41000000
   H     54.81000000    74.47000000    63.17000000
   N     54.48000000    73.29000000    66.05000000
   C     54.70000000    72.35000000    67.13000000
   C     53.83000000    71.10000000    67.15000000
   O     53.65000000    70.53000000    68.22000000
   C     56.17000000    71.96000000    67.28000000
   C     56.63000000    71.89000000    68.72000000
   C     56.64000000    70.68000000    69.42000000
   C     56.97000000    73.06000000    69.41000000
   C     57.14000000    70.59000000    70.72000000
   C     57.28000000    73.03000000    70.78000000
   C     57.46000000    71.78000000    71.40000000
   O     57.68000000    71.71000000    72.74000000
   H     54.13000000    74.16000000    66.43000000
   H     54.48000000    72.88000000    68.07000000
   H     56.86000000    72.61000000    66.75000000
   H     56.40000000    70.96000000    66.92000000
   H     56.41000000    69.81000000    68.82000000
   H     56.89000000    74.04000000    68.96000000
   H     56.92000000    69.63000000    71.17000000
   H     57.48000000    73.93000000    71.35000000
   H     57.68000000    72.62000000    73.05000000
   N     53.35000000    70.61000000    66.01000000
   C     52.49000000    69.45000000    65.91000000
   C     51.17000000    69.63000000    66.65000000
   O     50.09000000    69.46000000    66.10000000
   C     53.19000000    68.13000000    66.20000000
   C     54.31000000    67.83000000    65.20000000
   C     52.24000000    66.93000000    66.25000000
   C     54.32000000    68.37000000    63.77000000
   H     53.73000000    71.03000000    65.18000000
   H     52.11000000    69.47000000    64.88000000
   H     53.56000000    68.18000000    67.23000000
   H     54.31000000    66.74000000    65.16000000
   H     55.27000000    68.14000000    65.61000000
   H     51.83000000    66.73000000    65.26000000
   H     52.81000000    66.07000000    66.60000000
   H     51.42000000    67.13000000    66.94000000
   H     55.10000000    67.95000000    63.14000000
   H     53.38000000    68.09000000    63.28000000
   H     54.48000000    69.45000000    63.86000000
   N     51.22000000    69.69000000    67.99000000
   C     50.09000000    69.76000000    68.88000000
   C     49.02000000    68.68000000    68.76000000
   O     47.89000000    68.99000000    69.12000000
   C     50.68000000    69.78000000    70.29000000
   O     51.37000000    70.99000000    70.51000000
   H     52.11000000    69.85000000    68.44000000
   H     49.66000000    70.74000000    68.68000000
   H     51.35000000    68.93000000    70.34000000
   H     49.92000000    69.62000000    71.06000000
   H     52.02000000    70.89000000    71.21000000
   N     49.33000000    67.44000000    68.36000000
   C     48.42000000    66.39000000    67.96000000
   C     47.30000000    66.80000000    67.02000000
   O     46.23000000    66.20000000    67.09000000
   C     48.13000000    65.49000000    69.16000000
   H     50.28000000    67.11000000    68.32000000
   H     48.95000000    65.86000000    67.17000000
   H     47.47000000    64.71000000    68.79000000
   H     49.05000000    64.98000000    69.45000000
   H     47.70000000    66.12000000    69.94000000
   N     47.51000000    67.88000000    66.28000000
   C     46.52000000    68.48000000    65.41000000
   C     46.49000000    67.75000000    64.07000000
   O     47.49000000    67.20000000    63.62000000
   C     46.70000000    69.98000000    65.21000000
   H     48.40000000    68.35000000    66.37000000
   H     45.56000000    68.41000000    65.92000000
   H     45.78000000    70.51000000    64.94000000
   H     47.05000000    70.42000000    66.14000000
   H     47.39000000    70.23000000    64.40000000
   N     45.32000000    67.57000000    63.46000000
   C     45.08000000    67.23000000    62.08000000
   C     45.54000000    65.85000000    61.64000000
   O     45.38000000    65.54000000    60.45000000
   C     45.55000000    68.35000000    61.16000000
   C     44.98000000    68.36000000    59.74000000
   C     45.01000000    69.79000000    59.22000000
   O     46.12000000    70.31000000    58.96000000
   O     43.99000000    70.35000000    58.76000000
   H     44.54000000    67.98000000    63.96000000
   H     43.99000000    67.17000000    61.97000000
   H     46.62000000    68.54000000    61.24000000
   H     45.17000000    69.24000000    61.66000000
   H     43.94000000    68.06000000    59.79000000
   H     45.47000000    67.67000000    59.06000000
   N     46.06000000    65.03000000    62.56000000
   C     46.46000000    63.65000000    62.45000000
   H     47.42300000    63.51100000    62.94100000
   H     45.71400000    63.01600000    62.92900000
   H     46.54700000    63.37900000    61.39800000
   H     45.93000000    65.37000000    63.50000000
  Ca     44.98000000    72.57000000    57.98000000
   O     44.39000000    73.09000000    60.65000000
   H     43.67000000    73.67000000    60.90000000
   H     44.30000000    72.34000000    61.22000000
   O     44.59000000    75.22000000    57.99000000
   H     43.79000000    75.59000000    58.37000000
   H     45.20000000    75.95000000    57.98000000
   O     47.10000000    73.87000000    59.07000000
   H     47.94000000    73.78000000    59.51000000
   H     47.00000000    74.82000000    58.95000000
   O     44.11000000    71.32000000    55.89000000
   H     44.57000000    71.58000000    55.09000000
   H     43.72000000    70.47000000    55.68000000
   O     42.36000000    73.20000000    57.66000000
   H     41.51000000    73.39000000    58.05000000
   H     42.28000000    73.46000000    56.74000000

Ca 1.00



