%chk=loop1.holoCaM-CaMKII.run18.water2.chk
%nprocshared=20
%mem=10GB
%nosave
#b3lyp/svp scf=(tight,noincore,xqc) Test 
#IOP(5/87=12) Density=Current Pop=(MK,readradii) iop(6/33=2) iop(6/42=6)

loop1.holoCaM-CaMKII.run18.water2 

   0  1 
   C     87.02800000    64.14000000     7.45000000
   C     87.61800000    63.13000000     6.47000000
   O     86.84800000    62.44000000     5.81000000
   H     86.02300000    63.82700000     7.73200000
   H     87.65500000    64.19300000     8.34000000
   H     86.98300000    65.12200000     6.97800000
   N     88.93800000    63.01000000     6.27000000
   C     89.51800000    62.37000000     5.11000000
   C     89.51800000    60.86000000     5.27000000
   O     90.36800000    60.33000000     5.98000000
   C     90.94800000    62.93000000     5.05000000
   C     91.74800000    62.42000000     3.86000000
   O     92.91800000    62.77000000     3.59000000
   O     91.21800000    61.57000000     3.12000000
   H     89.53800000    63.60000000     6.83000000
   H     89.00800000    62.62000000     4.18000000
   H     91.50800000    62.68000000     5.95000000
   H     90.82800000    64.00000000     4.92000000
   N     88.55800000    60.16000000     4.66000000
   C     88.26800000    58.78000000     5.01000000
   C     89.35800000    57.81000000     4.56000000
   O     89.40800000    56.70000000     5.06000000
   C     86.86800000    58.46000000     4.49000000
   C     86.30800000    57.21000000     5.15000000
   C     86.15800000    57.18000000     6.67000000
   C     85.52800000    58.47000000     7.20000000
   N     84.67800000    58.26000000     8.38000000
   H     88.07800000    60.70000000     3.96000000
   H     88.28800000    58.77000000     6.10000000
   H     86.73800000    58.42000000     3.41000000
   H     86.22800000    59.26000000     4.86000000
   H     86.80800000    56.29000000     4.86000000
   H     85.31800000    57.05000000     4.71000000
   H     87.11800000    57.12000000     7.17000000
   H     85.57800000    56.31000000     6.98000000
   H     84.98800000    58.91000000     6.36000000
   H     86.34800000    59.13000000     7.46000000
   H     83.94800000    57.58000000     8.27000000
   H     85.23800000    57.83000000     9.11000000
   H     84.17800000    59.08000000     8.69000000
   N     90.21800000    58.23000000     3.63000000
   C     91.21800000    57.37000000     3.05000000
   C     92.66800000    57.82000000     3.10000000
   O     93.53800000    56.95000000     3.05000000
   C     90.83800000    56.96000000     1.63000000
   C     90.45800000    58.12000000     0.71000000
   O     89.70800000    57.84000000    -0.25000000
   O     90.60800000    59.30000000     1.10000000
   H     90.10800000    59.20000000     3.36000000
   H     91.23800000    56.49000000     3.70000000
   H     89.98800000    56.28000000     1.59000000
   H     91.67800000    56.41000000     1.22000000
   N     92.95800000    59.09000000     3.42000000
   C     94.30800000    59.50000000     3.76000000
   C     95.09800000    59.94000000     2.53000000
   O     96.13800000    59.33000000     2.32000000
   H     92.17800000    59.72000000     3.35000000
   H     94.83800000    58.68000000     4.24000000
   H     94.16800000    60.36000000     4.41000000
   N     94.66800000    60.93000000     1.74000000
   C     95.35800000    61.47000000     0.59000000
   C     95.84800000    62.91000000     0.69000000
   O     96.50800000    63.40000000    -0.23000000
   C     94.48800000    61.35000000    -0.66000000
   C     92.98800000    61.54000000    -0.46000000
   O     92.67800000    62.43000000     0.36000000
   O     92.23800000    60.86000000    -1.18000000
   H     93.74800000    61.29000000     1.97000000
   H     96.22800000    60.84000000     0.47000000
   H     94.57800000    60.32000000    -1.01000000
   H     94.81800000    62.07000000    -1.40000000
   N     95.41800000    63.64000000     1.72000000
   C     95.52800000    65.07000000     1.93000000
   C     94.44800000    65.84000000     1.19000000
   O     94.78800000    66.93000000     0.75000000
   H     94.68800000    63.25000000     2.30000000
   H     96.47800000    65.43000000     1.55000000
   H     95.40800000    65.19000000     3.01000000
   N     93.23800000    65.32000000     0.94000000
   C     92.12800000    65.98000000     0.27000000
   C     90.76800000    65.54000000     0.79000000
   O     90.62800000    64.37000000     1.12000000
   C     92.19800000    65.70000000    -1.23000000
   C     93.03800000    66.68000000    -2.04000000
   O     92.67800000    64.39000000    -1.46000000
   H     93.15800000    64.38000000     1.28000000
   H     92.17800000    67.05000000     0.49000000
   H     91.20800000    65.82000000    -1.65000000
   H     92.93800000    63.95000000    -0.64000000
   H     92.73800000    67.69000000    -1.74000000
   H     94.07800000    66.44000000    -1.84000000
   H     92.60800000    66.49000000    -3.03000000
   N     89.79800000    66.44000000     0.95000000
   C     88.48800000    66.19000000     1.53000000
   C     87.48800000    66.56000000     0.44000000
   O     87.36800000    67.69000000    -0.01000000
   C     88.22800000    66.97000000     2.81000000
   C     89.14800000    66.67000000     3.99000000
   C     86.77800000    66.79000000     3.26000000
   C     89.15800000    67.77000000     5.05000000
   H     90.07800000    67.39000000     0.77000000
   H     88.51800000    65.13000000     1.79000000
   H     88.35800000    68.03000000     2.63000000
   H     90.17800000    66.57000000     3.64000000
   H     88.92800000    65.70000000     4.43000000
   H     86.08800000    67.27000000     2.57000000
   H     86.56800000    65.73000000     3.38000000
   H     86.66800000    67.31000000     4.22000000
   H     89.87800000    67.47000000     5.81000000
   H     89.43800000    68.72000000     4.59000000
   H     88.21800000    67.78000000     5.60000000
   N     86.75800000    65.55000000    -0.04000000
   C     85.62800000    65.67000000    -0.94000000
   C     84.33800000    66.13000000    -0.28000000
   O     84.20800000    66.27000000     0.93000000
   C     85.31800000    64.36000000    -1.68000000
   C     86.44800000    63.69000000    -2.45000000
   O     84.72800000    63.34000000    -0.91000000
   H     86.90800000    64.62000000     0.31000000
   H     85.86800000    66.38000000    -1.73000000
   H     84.51800000    64.59000000    -2.39000000
   H     85.15800000    62.53000000    -1.19000000
   H     87.18800000    63.43000000    -1.70000000
   H     86.09800000    62.79000000    -2.95000000
   H     86.84800000    64.35000000    -3.22000000
   N     83.30800000    66.39000000    -1.08000000
   C     81.95800000    66.67000000    -0.65000000
   C     81.28800000    65.50000000     0.06000000
   O     80.53800000    65.74000000     1.00000000
   C     81.06800000    66.94000000    -1.86000000
   C     81.13800000    68.27000000    -2.59000000
   O     81.20800000    65.83000000    -2.72000000
   H     83.46800000    66.55000000    -2.07000000
   H     81.98800000    67.57000000    -0.03000000
   H     80.02800000    66.84000000    -1.54000000
   H     80.51800000    65.93000000    -3.38000000
   H     81.54800000    69.03000000    -1.92000000
   H     81.86800000    68.22000000    -3.40000000
   H     80.16800000    68.55000000    -3.01000000
   N     81.61800000    64.26000000    -0.31000000
   C     81.29800000    63.06000000     0.44000000
   C     81.88800000    62.99000000     1.84000000
   O     81.22800000    62.63000000     2.81000000
   C     81.72800000    61.83000000    -0.36000000
   C     81.22800000    60.52000000     0.25000000
   C     81.57800000    59.42000000    -0.74000000
   C     81.25800000    58.08000000    -0.07000000
   N     81.75800000    57.01000000    -0.95000000
   H     82.32800000    64.20000000    -1.02000000
   H     80.21800000    62.99000000     0.55000000
   H     82.80800000    61.73000000    -0.43000000
   H     81.32800000    61.81000000    -1.37000000
   H     80.14800000    60.68000000     0.31000000
   H     81.62800000    60.38000000     1.25000000
   H     82.65800000    59.50000000    -0.90000000
   H     81.11800000    59.52000000    -1.73000000
   H     80.17800000    57.93000000     0.00000000
   H     81.70800000    58.23000000     0.91000000
   H     82.75800000    57.06000000    -1.03000000
   H     81.50800000    56.13000000    -0.53000000
   H     81.32800000    57.10000000    -1.86000000
   N     83.16800000    63.33000000     2.01000000
   C     83.85800000    63.44000000     3.28000000
   C     83.36800000    64.58000000     4.16000000
   O     83.04800000    64.34000000     5.32000000
   C     85.33800000    63.47000000     2.90000000
   C     85.85800000    62.11000000     2.45000000
   C     87.23800000    62.09000000     1.81000000
   O     87.60800000    62.90000000     0.92000000
   O     88.03800000    61.20000000     2.17000000
   H     83.72800000    63.36000000     1.17000000
   H     83.75800000    62.48000000     3.79000000
   H     85.91800000    63.88000000     3.72000000
   H     85.48800000    64.20000000     2.11000000
   H     85.20800000    61.56000000     1.76000000
   H     85.90800000    61.42000000     3.28000000
   N     83.24800000    65.79000000     3.60000000
   C     82.64800000    66.91000000     4.30000000
   H     81.65500000    66.62900000     4.65100000
   H     83.27000000    67.18200000     5.15300000
   H     82.56600000    67.76100000     3.62300000
   H     83.49800000    65.85000000     2.63000000
  Ca     90.14000000    61.69000000     0.71000000
   O     88.89000000    60.16000000    -1.12800000
   H     89.17000000    59.29000000    -0.85800000
   H     88.04000000    60.02000000    -1.54800000
   O     89.92000000    63.03000000    -1.67800000
   H     89.27000000    63.11000000    -2.37800000
   H     90.72000000    63.40000000    -2.06800000

Ca 1.00



