%chk=loop2.holoCaM-CaMKII.run36.water2.chk
%nprocshared=20
%mem=10GB
%nosave
#b3lyp/svp scf=(tight,noincore,xqc) Test 
#IOP(5/87=12) Density=Current Pop=(MK,readradii) iop(6/33=2) iop(6/42=6)

loop2.holoCaM-CaMKII.run36.water2 

   -2  1 
   C    -22.47600000    60.45000000     0.57400000
   C    -22.93600000    59.99000000    -0.79600000
   O    -22.22600000    60.24000000    -1.76600000
   H    -21.60900000    61.10200000     0.46600000
   H    -23.28200000    60.99600000     1.06400000
   H    -22.20500000    59.58300000     1.17700000
   N    -24.09600000    59.34000000    -0.89600000
   C    -24.46600000    58.82000000    -2.19600000
   C    -24.99600000    59.89000000    -3.14600000
   O    -25.49600000    60.94000000    -2.74600000
   C    -25.62600000    57.86000000    -1.97600000
   C    -26.07600000    57.13000000    -3.23600000
   O    -27.27600000    56.85000000    -3.44600000
   O    -25.17600000    56.70000000    -3.99600000
   H    -24.84600000    59.28000000    -0.20600000
   H    -23.59600000    58.34000000    -2.66600000
   H    -26.51600000    58.21000000    -1.43600000
   H    -25.25600000    57.07000000    -1.32600000
   N    -24.74600000    59.62000000    -4.42600000
   C    -25.23600000    60.41000000    -5.54600000
   C    -25.73600000    59.57000000    -6.71600000
   O    -26.17600000    60.21000000    -7.66600000
   C    -24.12600000    61.41000000    -5.85600000
   H    -24.02600000    58.94000000    -4.61600000
   H    -26.18600000    60.85000000    -5.25600000
   H    -24.51600000    61.99000000    -6.68600000
   H    -23.91600000    62.12000000    -5.05600000
   H    -23.19600000    60.88000000    -6.09600000
   N    -25.76600000    58.24000000    -6.62600000
   C    -26.16600000    57.48000000    -7.79600000
   C    -27.02600000    56.26000000    -7.51600000
   O    -27.60600000    55.72000000    -8.45600000
   C    -24.95600000    57.00000000    -8.58600000
   C    -23.90600000    56.16000000    -7.86600000
   O    -24.19600000    55.51000000    -6.83600000
   O    -22.77600000    56.13000000    -8.39600000
   H    -25.52600000    57.72000000    -5.79600000
   H    -26.80600000    58.07000000    -8.44600000
   H    -24.48600000    57.88000000    -9.03600000
   H    -25.38600000    56.42000000    -9.40600000
   N    -27.23600000    55.94000000    -6.23600000
   C    -28.14600000    54.89000000    -5.81600000
   C    -27.65600000    53.49000000    -6.16600000
   O    -28.40600000    52.53000000    -5.96600000
   H    -26.64600000    56.46000000    -5.59600000
   H    -29.12600000    55.03000000    -6.26600000
   H    -28.36600000    54.98000000    -4.75600000
   N    -26.40600000    53.24000000    -6.58600000
   C    -25.90600000    51.92000000    -6.88600000
   C    -25.82600000    50.91000000    -5.75600000
   O    -25.59600000    49.73000000    -6.02600000
   C    -24.59600000    52.14000000    -7.63600000
   C    -23.36600000    52.47000000    -6.79600000
   N    -22.19600000    52.53000000    -7.42600000
   O    -23.47600000    52.84000000    -5.62600000
   H    -25.72600000    53.98000000    -6.63600000
   H    -26.46600000    51.43000000    -7.68600000
   H    -24.76600000    52.91000000    -8.38600000
   H    -24.36600000    51.18000000    -8.10600000
   H    -22.15600000    52.39000000    -8.42600000
   H    -21.42600000    52.96000000    -6.93600000
   N    -25.93600000    51.32000000    -4.48600000
   C    -26.02600000    50.44000000    -3.34600000
   C    -24.70600000    50.36000000    -2.59600000
   O    -24.61600000    49.59000000    -1.64600000
   H    -25.80600000    52.31000000    -4.32600000
   H    -26.41600000    49.43000000    -3.52600000
   H    -26.82600000    50.74000000    -2.65600000
   N    -23.68600000    51.14000000    -2.95600000
   C    -22.35600000    50.98000000    -2.42600000
   C    -21.69600000    52.34000000    -2.30600000
   O    -22.12600000    53.29000000    -2.96600000
   C    -21.43600000    50.26000000    -3.40600000
   C    -21.79600000    48.80000000    -3.65600000
   O    -21.54600000    50.82000000    -4.69600000
   H    -23.72600000    51.68000000    -3.81600000
   H    -22.29600000    50.40000000    -1.49600000
   H    -20.40600000    50.33000000    -3.03600000
   H    -21.07600000    51.65000000    -4.69600000
   H    -21.20600000    48.43000000    -4.49600000
   H    -21.53600000    48.16000000    -2.80600000
   H    -22.87600000    48.68000000    -3.65600000
   N    -20.60600000    52.44000000    -1.53600000
   C    -19.71600000    53.58000000    -1.65600000
   C    -18.82600000    53.41000000    -2.88600000
   O    -18.16600000    52.40000000    -3.08600000
   C    -19.00600000    53.94000000    -0.35600000
   C    -20.10600000    54.29000000     0.63400000
   C    -17.93600000    55.03000000    -0.46600000
   C    -19.85600000    53.83000000     2.07400000
   H    -20.16600000    51.60000000    -1.19600000
   H    -20.43600000    54.38000000    -1.83600000
   H    -18.47600000    53.09000000     0.07400000
   H    -21.12600000    54.12000000     0.31400000
   H    -20.13600000    55.38000000     0.68400000
   H    -17.03600000    54.67000000    -0.97600000
   H    -18.27600000    55.89000000    -1.04600000
   H    -17.63600000    55.41000000     0.50400000
   H    -18.82600000    53.99000000     2.37400000
   H    -20.63600000    54.15000000     2.76400000
   H    -19.99600000    52.75000000     2.03400000
   N    -18.85600000    54.49000000    -3.67600000
   C    -17.94600000    54.77000000    -4.76600000
   C    -16.80600000    55.68000000    -4.34600000
   O    -16.95600000    56.38000000    -3.33600000
   C    -18.71600000    55.44000000    -5.90600000
   C    -19.85600000    54.53000000    -6.32600000
   O    -20.95600000    54.63000000    -5.73600000
   O    -19.66600000    53.69000000    -7.23600000
   H    -19.47600000    55.26000000    -3.48600000
   H    -17.53600000    53.83000000    -5.13600000
   H    -18.10600000    55.42000000    -6.80600000
   H    -19.09600000    56.44000000    -5.68600000
   N    -15.65600000    55.76000000    -5.02600000
   C    -14.44600000    56.45000000    -4.66600000
   C    -14.57600000    57.97000000    -4.65600000
   O    -14.12600000    58.62000000    -3.71600000
   C    -13.22600000    56.04000000    -5.49600000
   C    -11.91600000    56.65000000    -5.06600000
   C    -11.04600000    57.25000000    -5.98600000
   C    -11.49600000    56.38000000    -3.75600000
   C     -9.91600000    57.96000000    -5.55600000
   C    -10.26600000    56.91000000    -3.37600000
   C     -9.48600000    57.68000000    -4.25600000
   H    -15.55600000    55.10000000    -5.78600000
   H    -14.16600000    56.13000000    -3.66600000
   H    -13.39600000    56.27000000    -6.54600000
   H    -13.14600000    54.95000000    -5.41600000
   H    -11.45600000    57.39000000    -6.97600000
   H    -12.00600000    55.68000000    -3.11600000
   H     -9.31600000    58.53000000    -6.24600000
   H     -9.87600000    56.73000000    -2.38600000
   H     -8.55600000    58.09000000    -3.89600000
   N    -15.34600000    58.59000000    -5.55600000
   C    -15.62600000    60.01000000    -5.57600000
   C    -16.42600000    60.56000000    -4.40600000
   O    -16.10600000    61.59000000    -3.81600000
   C    -16.17600000    60.36000000    -6.95600000
   C    -15.57600000    59.26000000    -7.81600000
   C    -15.64600000    58.07000000    -6.86600000
   H    -14.65600000    60.51000000    -5.52600000
   H    -17.25600000    60.21000000    -7.01600000
   H    -15.78600000    61.26000000    -7.44600000
   H    -15.99600000    58.99000000    -8.78600000
   H    -14.54600000    59.55000000    -8.00600000
   H    -16.63600000    57.61000000    -6.94600000
   H    -14.87600000    57.36000000    -7.17600000
   N    -17.46600000    59.82000000    -4.01600000
   C    -18.26600000    59.90000000    -2.80600000
   C    -17.38600000    59.61000000    -1.60600000
   O    -17.73600000    60.13000000    -0.54600000
   C    -19.38600000    58.87000000    -2.91600000
   C    -20.28600000    58.92000000    -4.14600000
   C    -21.35600000    57.83000000    -4.18600000
   O    -22.41600000    57.95000000    -4.83600000
   O    -21.17600000    56.75000000    -3.58600000
   H    -17.60600000    58.97000000    -4.53600000
   H    -18.75600000    60.85000000    -2.58600000
   H    -20.06600000    58.83000000    -2.06600000
   H    -18.91600000    57.88000000    -2.89600000
   H    -19.64600000    58.87000000    -5.02600000
   H    -20.83600000    59.86000000    -4.19600000
   N    -16.30600000    58.84000000    -1.74600000
   C    -15.42600000    58.51000000    -0.64600000
   H    -14.54100000    59.14600000    -0.68600000
   H    -15.94700000    58.67200000     0.29800000
   H    -15.12600000    57.46500000    -0.72100000
   H    -16.30600000    58.22000000    -2.54600000
  Ca    -23.07600000    55.28000000    -4.50600000
   O    -22.85600000    55.77000000    -1.70600000
   H    -22.01600000    56.21000000    -1.83600000
   H    -23.13600000    56.05000000    -0.83600000
   O    -25.10600000    53.83000000    -3.12600000
   H    -24.35600000    53.90000000    -2.53600000
   H    -25.85600000    53.71000000    -2.54600000

Ca 1.00



