%chk=loop3.holoCaM.run100.water3.chk
%nprocshared=20
%mem=10GB
%nosave
#b3lyp/svp scf=(tight,noincore,xqc) Test 
#IOP(5/87=12) Density=Current Pop=(MK,readradii) iop(6/33=2) iop(6/42=6)

loop3.holoCaM.run100.water3 

   0  1 
   C     22.86000000    39.96000000     9.80000000
   C     23.64000000    39.41000000    10.99000000
   O     23.97000000    38.24000000    11.16000000
   H     21.96000000    40.46100000    10.15600000
   H     23.48000000    40.67200000     9.25600000
   H     22.58100000    39.14100000     9.13800000
   N     23.81000000    40.24000000    12.03000000
   C     24.17000000    39.82000000    13.37000000
   C     23.09000000    39.03000000    14.09000000
   O     22.06000000    39.59000000    14.47000000
   C     24.50000000    41.11000000    14.12000000
   C     25.07000000    40.85000000    15.51000000
   O     25.05000000    41.81000000    16.31000000
   O     25.53000000    39.75000000    15.88000000
   H     23.49000000    41.19000000    11.91000000
   H     25.06000000    39.20000000    13.35000000
   H     23.64000000    41.76000000    14.16000000
   H     25.36000000    41.50000000    13.56000000
   N     23.23000000    37.71000000    14.26000000
   C     22.14000000    36.81000000    14.59000000
   C     21.80000000    36.79000000    16.07000000
   O     20.64000000    36.61000000    16.43000000
   C     22.51000000    35.45000000    14.00000000
   C     22.67000000    35.36000000    12.49000000
   C     21.54000000    35.97000000    11.67000000
   C     20.16000000    35.48000000    12.10000000
   N     19.13000000    36.16000000    11.31000000
   H     24.13000000    37.35000000    14.00000000
   H     21.23000000    37.18000000    14.13000000
   H     21.80000000    34.69000000    14.34000000
   H     23.40000000    35.12000000    14.53000000
   H     22.94000000    34.34000000    12.22000000
   H     23.59000000    35.84000000    12.15000000
   H     21.67000000    35.60000000    10.65000000
   H     21.63000000    37.04000000    11.81000000
   H     20.00000000    35.74000000    13.15000000
   H     20.08000000    34.43000000    11.80000000
   H     18.27000000    35.64000000    11.41000000
   H     18.93000000    37.08000000    11.67000000
   H     19.36000000    36.31000000    10.34000000
   N     22.76000000    36.91000000    17.00000000
   C     22.47000000    37.03000000    18.42000000
   C     22.28000000    38.47000000    18.86000000
   O     21.70000000    38.78000000    19.89000000
   C     23.60000000    36.40000000    19.23000000
   C     25.01000000    36.95000000    19.06000000
   O     25.87000000    36.60000000    19.90000000
   O     25.36000000    37.68000000    18.10000000
   H     23.75000000    36.95000000    16.80000000
   H     21.55000000    36.51000000    18.67000000
   H     23.66000000    35.35000000    18.95000000
   H     23.27000000    36.40000000    20.27000000
   N     22.63000000    39.42000000    17.98000000
   C     22.55000000    40.84000000    18.26000000
   C     23.63000000    41.49000000    19.10000000
   O     23.49000000    42.57000000    19.67000000
   H     23.13000000    39.04000000    17.19000000
   H     21.54000000    41.07000000    18.62000000
   H     22.53000000    41.31000000    17.27000000
   N     24.77000000    40.79000000    19.10000000
   C     25.87000000    41.19000000    19.95000000
   C     26.75000000    42.34000000    19.47000000
   O     27.57000000    42.85000000    20.23000000
   C     26.58000000    39.92000000    20.40000000
   C     27.84000000    39.55000000    19.63000000
   N     28.93000000    39.29000000    20.36000000
   O     27.93000000    39.54000000    18.41000000
   H     24.77000000    39.94000000    18.56000000
   H     25.36000000    41.51000000    20.86000000
   H     25.94000000    39.03000000    20.35000000
   H     26.90000000    40.19000000    21.40000000
   H     29.02000000    39.49000000    21.35000000
   H     29.80000000    39.14000000    19.87000000
   N     26.65000000    42.83000000    18.24000000
   C     27.49000000    43.85000000    17.65000000
   C     28.41000000    43.41000000    16.52000000
   O     29.11000000    44.26000000    15.96000000
   H     26.06000000    42.32000000    17.60000000
   H     28.11000000    44.32000000    18.41000000
   H     26.80000000    44.58000000    17.21000000
   N     28.53000000    42.13000000    16.18000000
   C     29.48000000    41.64000000    15.21000000
   C     28.96000000    40.51000000    14.34000000
   O     28.11000000    39.73000000    14.78000000
   C     30.59000000    41.07000000    16.09000000
   C     31.22000000    42.12000000    16.98000000
   C     31.97000000    43.14000000    16.36000000
   C     31.08000000    42.09000000    18.37000000
   C     32.60000000    44.08000000    17.18000000
   C     31.58000000    43.11000000    19.20000000
   C     32.30000000    44.14000000    18.56000000
   O     32.72000000    45.22000000    19.28000000
   H     27.95000000    41.46000000    16.67000000
   H     29.76000000    42.48000000    14.57000000
   H     31.27000000    40.81000000    15.28000000
   H     30.24000000    40.23000000    16.68000000
   H     32.11000000    43.20000000    15.29000000
   H     30.55000000    41.32000000    18.91000000
   H     33.22000000    44.85000000    16.75000000
   H     31.38000000    43.15000000    20.26000000
   H     32.35000000    45.23000000    20.16000000
   N     29.53000000    40.32000000    13.15000000
   C     29.22000000    39.28000000    12.19000000
   C     30.43000000    38.39000000    11.99000000
   O     31.50000000    38.85000000    11.59000000
   C     28.79000000    39.93000000    10.88000000
   C     27.64000000    40.88000000    11.19000000
   C     28.35000000    38.72000000    10.05000000
   C     27.16000000    41.61000000     9.93000000
   H     30.32000000    40.93000000    12.96000000
   H     28.36000000    38.74000000    12.59000000
   H     29.61000000    40.43000000    10.37000000
   H     28.05000000    41.66000000    11.84000000
   H     26.84000000    40.33000000    11.67000000
   H     27.42000000    38.25000000    10.36000000
   H     28.05000000    39.10000000     9.07000000
   H     29.17000000    38.04000000     9.86000000
   H     26.49000000    42.36000000    10.35000000
   H     28.03000000    42.05000000     9.44000000
   H     26.64000000    40.91000000     9.28000000
   N     30.34000000    37.07000000    12.18000000
   C     31.34000000    36.05000000    11.92000000
   C     31.06000000    35.39000000    10.58000000
   O     30.00000000    35.51000000     9.97000000
   C     31.32000000    34.98000000    13.00000000
   O     30.15000000    34.20000000    12.84000000
   H     29.50000000    36.70000000    12.59000000
   H     32.35000000    36.46000000    11.88000000
   H     31.45000000    35.53000000    13.93000000
   H     32.19000000    34.33000000    12.90000000
   H     29.82000000    33.86000000    13.67000000
   N     32.04000000    34.64000000    10.07000000
   C     31.82000000    33.84000000     8.88000000
   C     30.67000000    32.85000000     8.99000000
   O     29.95000000    32.66000000     8.01000000
   C     33.07000000    33.08000000     8.44000000
   H     33.00000000    34.76000000    10.36000000
   H     31.69000000    34.58000000     8.10000000
   H     32.91000000    32.73000000     7.43000000
   H     33.89000000    33.80000000     8.40000000
   H     33.20000000    32.25000000     9.14000000
   N     30.45000000    32.33000000    10.21000000
   C     29.40000000    31.37000000    10.46000000
   C     28.06000000    32.06000000    10.27000000
   O     27.11000000    31.44000000     9.80000000
   C     29.54000000    30.71000000    11.83000000
   H     31.13000000    32.52000000    10.93000000
   H     29.33000000    30.56000000     9.73000000
   H     30.42000000    30.07000000    11.89000000
   H     29.44000000    31.45000000    12.61000000
   H     28.71000000    30.02000000    11.96000000
   N     27.94000000    33.37000000    10.51000000
   C     26.74000000    34.15000000    10.29000000
   C     26.56000000    34.55000000     8.83000000
   O     25.46000000    34.52000000     8.28000000
   C     26.71000000    35.42000000    11.14000000
   C     26.57000000    35.08000000    12.62000000
   C     26.71000000    36.24000000    13.60000000
   O     27.84000000    36.65000000    13.93000000
   O     25.73000000    36.67000000    14.23000000
   H     28.83000000    33.83000000    10.64000000
   H     25.88000000    33.55000000    10.60000000
   H     25.85000000    35.96000000    10.75000000
   H     27.66000000    35.95000000    11.01000000
   H     27.37000000    34.37000000    12.83000000
   H     25.63000000    34.56000000    12.83000000
   N     27.64000000    34.92000000     8.14000000
   C     27.62000000    35.17000000     6.71000000
   H     27.87200000    36.21300000     6.52100000
   H     28.34900000    34.52600000     6.21800000
   H     26.62500000    34.96000000     6.31800000
   H     28.52000000    35.03000000     8.61000000
  Ca     27.15000000    37.79000000    16.26000000
   O     26.03000000    34.95000000    16.24000000
   H     25.91000000    35.16000000    15.31000000
   H     26.28000000    34.03000000    16.24000000
   O     27.99000000    36.43000000    18.24000000
   H     28.53000000    35.75000000    18.65000000
   H     27.35000000    36.67000000    18.92000000
   O     29.88000000    37.35000000    15.72000000
   H     30.53000000    36.68000000    15.92000000
   H     29.44000000    37.03000000    14.93000000

Ca 1.00



