%chk=loop4.apoCaM-CA-Ng.Init31.run31.water5.chk
%nprocshared=20
%mem=10GB
%nosave
#b3lyp/svp scf=(tight,noincore,xqc) Test 
#IOP(5/87=12) Density=Current Pop=(MK,readradii) iop(6/33=2) iop(6/42=6)

loop4.apoCaM-CA-Ng.Init31.run31.water5 

   -3  1 
   C     92.79000000    36.62000000    87.86000000
   C     94.26000000    36.88000000    88.15000000
   O     94.74000000    37.99000000    87.94000000
   H     92.23100000    37.55000000    87.95900000
   H     92.68100000    36.23800000    86.84500000
   H     92.40400000    35.88700000    88.56800000
   N     95.07000000    35.92000000    88.59000000
   C     94.85000000    34.53000000    88.95000000
   C     94.92000000    34.25000000    90.45000000
   O     94.80000000    33.10000000    90.87000000
   C     95.84000000    33.54000000    88.34000000
   C     95.94000000    33.79000000    86.84000000
   O     96.72000000    34.68000000    86.45000000
   O     95.23000000    33.19000000    86.01000000
   H     96.04000000    36.21000000    88.66000000
   H     93.91000000    34.22000000    88.51000000
   H     95.58000000    32.52000000    88.59000000
   H     96.79000000    33.67000000    88.86000000
   N     95.02000000    35.34000000    91.22000000
   C     94.85000000    35.31000000    92.66000000
   C     95.84000000    34.40000000    93.38000000
   O     95.40000000    33.65000000    94.26000000
   C     94.78000000    36.73000000    93.21000000
   C     94.12000000    36.85000000    94.58000000
   C     96.13000000    37.44000000    93.17000000
   C     93.88000000    38.31000000    94.93000000
   H     95.18000000    36.25000000    90.81000000
   H     93.87000000    34.85000000    92.68000000
   H     94.12000000    37.24000000    92.51000000
   H     94.72000000    36.39000000    95.37000000
   H     93.11000000    36.44000000    94.59000000
   H     96.50000000    37.21000000    92.17000000
   H     96.04000000    38.53000000    93.26000000
   H     96.82000000    36.97000000    93.86000000
   H     93.56000000    38.79000000    94.00000000
   H     93.02000000    38.36000000    95.60000000
   H     94.75000000    38.73000000    95.44000000
   N     97.14000000    34.35000000    93.08000000
   C     98.08000000    33.38000000    93.61000000
   C     98.91000000    32.65000000    92.57000000
   O    100.03000000    32.22000000    92.84000000
   C     98.84000000    33.90000000    94.83000000
   C     99.31000000    32.85000000    95.82000000
   O     99.59000000    33.27000000    96.97000000
   O     99.21000000    31.64000000    95.54000000
   H     97.39000000    34.83000000    92.24000000
   H     97.41000000    32.63000000    94.01000000
   H     98.19000000    34.58000000    95.37000000
   H     99.69000000    34.55000000    94.60000000
   N     98.34000000    32.37000000    91.39000000
   C     98.85000000    31.57000000    90.29000000
   C     99.70000000    32.36000000    89.30000000
   O     99.63000000    33.59000000    89.28000000
   H     97.42000000    32.77000000    91.29000000
   H     97.97000000    31.12000000    89.84000000
   H     99.56000000    30.80000000    90.58000000
   N    100.38000000    31.63000000    88.42000000
   C    101.30000000    32.32000000    87.53000000
   C    102.61000000    31.60000000    87.26000000
   O    102.67000000    30.55000000    86.63000000
   C    100.55000000    32.65000000    86.24000000
   C    101.30000000    33.29000000    85.08000000
   O    102.21000000    34.13000000    85.28000000
   O    101.19000000    32.83000000    83.93000000
   H    100.19000000    30.65000000    88.28000000
   H    101.55000000    33.29000000    87.95000000
   H     99.68000000    33.27000000    86.46000000
   H    100.14000000    31.68000000    85.99000000
   N    103.79000000    32.18000000    87.51000000
   C    104.01000000    33.34000000    88.35000000
   C    103.63000000    33.24000000    89.82000000
   O    102.94000000    32.29000000    90.20000000
   H    104.55000000    31.56000000    87.28000000
   H    103.51000000    34.22000000    87.94000000
   H    105.08000000    33.55000000    88.27000000
   N    103.98000000    34.09000000    90.78000000
   C    105.09000000    35.02000000    90.81000000
   C    104.98000000    36.22000000    89.89000000
   O    104.03000000    36.26000000    89.12000000
   C    106.42000000    34.28000000    90.76000000
   C    106.63000000    33.04000000    91.63000000
   C    106.10000000    33.25000000    93.04000000
   N    107.00000000    33.11000000    94.02000000
   O    104.94000000    33.52000000    93.32000000
   H    103.35000000    33.97000000    91.57000000
   H    105.18000000    35.44000000    91.81000000
   H    107.21000000    34.98000000    91.05000000
   H    106.51000000    33.95000000    89.73000000
   H    107.69000000    32.84000000    91.50000000
   H    106.04000000    32.26000000    91.15000000
   H    107.94000000    32.86000000    93.73000000
   H    106.66000000    33.33000000    94.94000000
   N    106.01000000    37.08000000    89.86000000
   C    106.39000000    38.01000000    88.82000000
   C    105.76000000    39.35000000    89.18000000
   O    106.46000000    40.34000000    89.34000000
   C    107.90000000    38.05000000    88.60000000
   C    108.37000000    38.72000000    87.31000000
   C    108.56000000    36.67000000    88.65000000
   H    106.68000000    36.94000000    90.60000000
   H    105.98000000    37.71000000    87.85000000
   H    108.28000000    38.63000000    89.44000000
   H    107.80000000    38.20000000    86.54000000
   H    107.99000000    39.74000000    87.32000000
   H    109.45000000    38.60000000    87.37000000
   H    108.42000000    36.09000000    89.56000000
   H    108.12000000    36.16000000    87.79000000
   H    109.64000000    36.67000000    88.50000000
   N    104.50000000    39.36000000    89.60000000
   C    103.80000000    40.36000000    90.38000000
   C    103.30000000    41.51000000    89.53000000
   O    102.96000000    42.57000000    90.05000000
   C    102.66000000    39.79000000    91.23000000
   C    102.98000000    38.62000000    92.16000000
   N    102.98000000    38.76000000    93.49000000
   O    103.12000000    37.48000000    91.72000000
   H    104.06000000    38.46000000    89.44000000
   H    104.52000000    40.76000000    91.09000000
   H    101.82000000    39.53000000    90.59000000
   H    102.17000000    40.54000000    91.84000000
   H    102.78000000    39.66000000    93.91000000
   H    103.23000000    37.89000000    93.92000000
   N    103.31000000    41.43000000    88.20000000
   C    102.91000000    42.48000000    87.28000000
   C    102.23000000    41.83000000    86.08000000
   O    102.01000000    40.62000000    86.17000000
   C    104.22000000    43.19000000    86.92000000
   C    104.03000000    44.33000000    85.95000000
   C    104.53000000    44.24000000    84.65000000
   C    103.41000000    45.51000000    86.39000000
   C    104.38000000    45.27000000    83.72000000
   C    103.24000000    46.54000000    85.46000000
   C    103.74000000    46.45000000    84.14000000
   O    103.39000000    47.41000000    83.24000000
   H    103.51000000    40.52000000    87.80000000
   H    102.17000000    43.14000000    87.72000000
   H    104.91000000    42.55000000    86.37000000
   H    104.72000000    43.62000000    87.78000000
   H    104.95000000    43.29000000    84.34000000
   H    103.12000000    45.65000000    87.42000000
   H    104.68000000    45.17000000    82.68000000
   H    102.72000000    47.43000000    85.81000000
   H    103.75000000    47.21000000    82.37000000
   N    101.94000000    42.59000000    85.02000000
   C    101.30000000    42.08000000    83.82000000
   C     99.80000000    41.93000000    83.95000000
   O     99.10000000    42.81000000    84.43000000
   C    101.84000000    42.96000000    82.70000000
   C    101.58000000    42.33000000    81.34000000
   C    102.20000000    43.12000000    80.20000000
   O    101.81000000    44.29000000    79.95000000
   O    103.13000000    42.62000000    79.53000000
   H    102.44000000    43.46000000    84.93000000
   H    101.76000000    41.11000000    83.62000000
   H    102.91000000    43.16000000    82.81000000
   H    101.37000000    43.95000000    82.78000000
   H    100.53000000    42.20000000    81.07000000
   H    101.87000000    41.28000000    81.26000000
   N     99.27000000    40.82000000    83.43000000
   C     97.85000000    40.53000000    83.45000000
   C     97.30000000    40.30000000    84.85000000
   O     96.08000000    40.36000000    84.95000000
   C     97.63000000    39.29000000    82.59000000
   C     96.18000000    39.09000000    82.17000000
   C     96.03000000    37.72000000    81.54000000
   O     96.07000000    37.68000000    80.29000000
   O     95.96000000    36.69000000    82.25000000
   H     99.87000000    40.08000000    83.10000000
   H     97.33000000    41.41000000    83.05000000
   H     97.97000000    38.41000000    83.13000000
   H     98.26000000    39.34000000    81.69000000
   H     96.10000000    39.88000000    81.42000000
   H     95.51000000    39.19000000    83.02000000
   N     98.17000000    39.99000000    85.81000000
   C     97.90000000    39.82000000    87.22000000
   H     96.85600000    39.53700000    87.35800000
   H     98.54400000    39.03800000    87.62200000
   H     98.09400000    40.75600000    87.74300000
   H     99.15000000    40.15000000    85.59000000
  Ca     96.10000000    34.66000000    83.93000000
   O     97.89000000    34.23000000    81.72000000
   H     97.74000000    34.34000000    80.78000000
   H     98.70000000    34.70000000    81.90000000
   O     95.14000000    32.87000000    81.86000000
   H     95.37000000    32.88000000    80.93000000
   H     94.33000000    32.36000000    81.90000000
   O     95.29000000    37.06000000    85.00000000
   H     95.18000000    37.25000000    85.93000000
   H     95.25000000    37.91000000    84.56000000
   O     98.53000000    35.96000000    84.16000000
   H     99.05000000    36.35000000    84.87000000
   H     99.15000000    35.87000000    83.44000000
   O     97.56000000    32.44000000    84.20000000
   H     97.91000000    31.65000000    83.79000000
   H     97.71000000    32.31000000    85.14000000

Ca 1.00



