%chk=loop3.holoCaM-CaMKII.run60.water3.chk
%nprocshared=20
%mem=10GB
%nosave
#b3lyp/svp scf=(tight,noincore,xqc) Test 
#IOP(5/87=12) Density=Current Pop=(MK,readradii) iop(6/33=2) iop(6/42=6)

loop3.holoCaM-CaMKII.run60.water3 

   0  1 
   C     22.35000000    47.97000000    17.74000000
   C     23.72000000    47.64000000    17.18000000
   O     24.10000000    48.11000000    16.10000000
   H     21.61700000    47.26700000    17.34400000
   H     22.37400000    47.89600000    18.82700000
   H     22.07300000    48.98400000    17.45000000
   N     24.53000000    46.73000000    17.72000000
   C     25.75000000    46.22000000    17.12000000
   C     25.44000000    45.28000000    15.96000000
   O     24.89000000    44.21000000    16.22000000
   C     26.65000000    45.55000000    18.15000000
   C     28.08000000    45.37000000    17.66000000
   O     28.46000000    45.78000000    16.54000000
   O     28.91000000    44.71000000    18.32000000
   H     24.32000000    46.26000000    18.59000000
   H     26.30000000    47.09000000    16.75000000
   H     26.23000000    44.56000000    18.34000000
   H     26.64000000    46.23000000    19.00000000
   N     25.88000000    45.56000000    14.73000000
   C     25.71000000    44.72000000    13.56000000
   C     26.64000000    43.52000000    13.42000000
   O     26.17000000    42.72000000    12.62000000
   C     25.90000000    45.55000000    12.29000000
   C     24.65000000    46.30000000    11.84000000
   C     24.70000000    46.64000000    10.36000000
   C     23.42000000    47.29000000     9.86000000
   N     23.47000000    47.78000000     8.47000000
   H     26.35000000    46.44000000    14.57000000
   H     24.71000000    44.30000000    13.59000000
   H     26.36000000    44.96000000    11.49000000
   H     26.65000000    46.32000000    12.48000000
   H     24.50000000    47.19000000    12.45000000
   H     23.76000000    45.69000000    11.98000000
   H     24.85000000    45.70000000     9.82000000
   H     25.57000000    47.29000000    10.23000000
   H     23.18000000    48.18000000    10.44000000
   H     22.63000000    46.55000000     9.97000000
   H     24.03000000    48.62000000     8.43000000
   H     24.00000000    47.13000000     7.91000000
   H     22.56000000    47.93000000     8.06000000
   N     27.75000000    43.38000000    14.15000000
   C     28.73000000    42.35000000    13.89000000
   C     29.23000000    41.73000000    15.18000000
   O     30.16000000    40.93000000    15.03000000
   C     29.81000000    42.88000000    12.96000000
   C     30.67000000    44.09000000    13.32000000
   O     30.33000000    44.74000000    14.34000000
   O     31.75000000    44.33000000    12.75000000
   H     28.00000000    44.17000000    14.74000000
   H     28.22000000    41.55000000    13.35000000
   H     29.39000000    43.20000000    12.01000000
   H     30.50000000    42.07000000    12.73000000
   N     28.79000000    41.89000000    16.43000000
   C     29.39000000    41.17000000    17.54000000
   C     30.80000000    41.60000000    17.93000000
   O     31.50000000    40.84000000    18.59000000
   H     27.97000000    42.47000000    16.55000000
   H     29.43000000    40.11000000    17.31000000
   H     28.77000000    41.31000000    18.42000000
   N     31.16000000    42.84000000    17.56000000
   C     32.45000000    43.48000000    17.68000000
   C     32.62000000    44.33000000    18.93000000
   O     33.79000000    44.60000000    19.21000000
   C     32.89000000    44.12000000    16.37000000
   C     32.73000000    45.63000000    16.27000000
   N     33.79000000    46.27000000    15.77000000
   O     31.80000000    46.31000000    16.72000000
   H     30.52000000    43.40000000    17.01000000
   H     33.13000000    42.67000000    17.90000000
   H     32.23000000    43.73000000    15.60000000
   H     33.94000000    43.89000000    16.21000000
   H     34.69000000    45.84000000    15.60000000
   H     33.67000000    47.27000000    15.80000000
   N     31.56000000    44.73000000    19.64000000
   C     31.61000000    45.58000000    20.81000000
   C     31.42000000    47.08000000    20.60000000
   O     31.65000000    47.82000000    21.55000000
   H     30.68000000    44.37000000    19.29000000
   H     32.48000000    45.33000000    21.41000000
   H     30.77000000    45.24000000    21.41000000
   N     31.06000000    47.54000000    19.40000000
   C     31.18000000    48.92000000    18.98000000
   C     30.02000000    49.28000000    18.06000000
   O     29.54000000    48.55000000    17.20000000
   C     32.47000000    49.16000000    18.21000000
   C     33.73000000    49.17000000    19.05000000
   C     34.14000000    50.34000000    19.70000000
   C     34.28000000    47.91000000    19.32000000
   C     35.18000000    50.24000000    20.62000000
   C     35.30000000    47.82000000    20.27000000
   C     35.77000000    48.99000000    20.90000000
   O     36.67000000    48.78000000    21.91000000
   H     31.06000000    46.80000000    18.71000000
   H     31.31000000    49.58000000    19.84000000
   H     32.39000000    50.16000000    17.78000000
   H     32.55000000    48.45000000    17.39000000
   H     33.58000000    51.25000000    19.56000000
   H     33.93000000    47.00000000    18.84000000
   H     35.60000000    51.13000000    21.07000000
   H     35.61000000    46.83000000    20.56000000
   H     37.03000000    49.60000000    22.26000000
   N     29.58000000    50.54000000    18.16000000
   C     28.40000000    51.12000000    17.56000000
   C     28.81000000    52.45000000    16.94000000
   O     29.48000000    53.24000000    17.60000000
   C     27.26000000    51.21000000    18.58000000
   C     26.68000000    49.82000000    18.79000000
   C     26.19000000    52.24000000    18.24000000
   C     25.99000000    49.52000000    20.11000000
   H     30.07000000    51.15000000    18.80000000
   H     28.04000000    50.51000000    16.73000000
   H     27.69000000    51.60000000    19.50000000
   H     27.53000000    49.15000000    18.89000000
   H     26.10000000    49.57000000    17.90000000
   H     26.57000000    53.25000000    18.42000000
   H     25.87000000    52.18000000    17.20000000
   H     25.36000000    52.07000000    18.93000000
   H     26.56000000    49.87000000    20.97000000
   H     25.04000000    50.06000000    20.16000000
   H     25.82000000    48.45000000    20.11000000
   N     28.50000000    52.68000000    15.66000000
   C     28.63000000    53.94000000    14.95000000
   C     27.34000000    54.49000000    14.37000000
   O     26.31000000    53.83000000    14.46000000
   C     29.58000000    53.61000000    13.81000000
   O     28.97000000    52.62000000    13.00000000
   H     28.00000000    51.96000000    15.15000000
   H     29.07000000    54.71000000    15.58000000
   H     30.55000000    53.28000000    14.19000000
   H     29.87000000    54.46000000    13.20000000
   H     29.31000000    52.64000000    12.11000000
   N     27.38000000    55.60000000    13.63000000
   C     26.24000000    56.30000000    13.08000000
   C     25.46000000    55.48000000    12.06000000
   O     24.23000000    55.46000000    12.13000000
   C     26.87000000    57.54000000    12.45000000
   H     28.23000000    56.14000000    13.75000000
   H     25.56000000    56.55000000    13.89000000
   H     26.04000000    58.16000000    12.11000000
   H     27.50000000    58.07000000    13.16000000
   H     27.54000000    57.18000000    11.66000000
   N     26.12000000    54.72000000    11.19000000
   C     25.42000000    53.77000000    10.35000000
   C     24.72000000    52.67000000    11.14000000
   O     23.63000000    52.26000000    10.74000000
   C     26.36000000    53.19000000     9.29000000
   H     27.10000000    54.59000000    11.41000000
   H     24.65000000    54.36000000     9.85000000
   H     25.85000000    52.56000000     8.56000000
   H     26.78000000    54.01000000     8.69000000
   H     27.19000000    52.58000000     9.64000000
   N     25.09000000    52.17000000    12.32000000
   C     24.47000000    51.14000000    13.13000000
   C     23.25000000    51.67000000    13.87000000
   O     22.24000000    51.01000000    14.06000000
   C     25.58000000    50.50000000    13.95000000
   C     26.52000000    49.66000000    13.09000000
   C     27.70000000    49.02000000    13.79000000
   O     27.61000000    47.80000000    14.08000000
   O     28.82000000    49.54000000    13.99000000
   H     26.02000000    52.47000000    12.59000000
   H     24.12000000    50.32000000    12.50000000
   H     25.10000000    49.89000000    14.72000000
   H     26.14000000    51.33000000    14.40000000
   H     26.93000000    50.38000000    12.38000000
   H     25.96000000    48.88000000    12.57000000
   N     23.29000000    52.95000000    14.25000000
   C     22.12000000    53.68000000    14.71000000
   H     21.28200000    52.99100000    14.81800000
   H     22.33600000    54.14400000    15.67300000
   H     21.86400000    54.45100000    13.98400000
   H     24.14000000    53.47000000    14.08000000
  Ca     29.94000000    47.12000000    15.00000000
   O     31.34000000    49.60000000    15.07000000
   H     31.69000000    50.47000000    15.25000000
   H     30.47000000    49.77000000    14.71000000
   O     32.02000000    46.83000000    13.40000000
   H     32.93000000    47.10000000    13.50000000
   H     32.07000000    45.89000000    13.21000000
   O     29.35000000    46.50000000    12.26000000
   H     28.44000000    46.79000000    12.17000000
   H     29.58000000    46.17000000    11.39000000

Ca 1.00



