%chk=loop4.apoCaM-CA-Ng.Init293.run26.water3.chk
%nprocshared=20
%mem=10GB
%nosave
#b3lyp/svp scf=(tight,noincore,xqc) Test 
#IOP(5/87=12) Density=Current Pop=(MK,readradii) iop(6/33=2) iop(6/42=6)

loop4.apoCaM-CA-Ng.Init293.run26.water3 

   -3  1 
   C     32.91000000    20.75000000    14.32000000
   C     33.78000000    21.93000000    13.91000000
   O     34.96000000    21.66000000    13.71000000
   H     31.95800000    20.80000000    13.79100000
   H     33.41700000    19.81900000    14.06800000
   H     32.73000000    20.78700000    15.39400000
   N     33.21000000    23.14000000    13.81000000
   C     33.72000000    24.38000000    13.26000000
   C     34.43000000    24.24000000    11.92000000
   O     35.65000000    24.33000000    11.88000000
   C     34.49000000    25.23000000    14.26000000
   C     35.77000000    24.68000000    14.88000000
   O     35.54000000    23.86000000    15.79000000
   O     36.83000000    25.21000000    14.48000000
   H     32.23000000    23.13000000    14.04000000
   H     32.72000000    24.80000000    13.15000000
   H     33.89000000    25.35000000    15.15000000
   H     34.67000000    26.20000000    13.78000000
   N     33.65000000    24.04000000    10.85000000
   C     33.94000000    23.70000000     9.48000000
   C     34.98000000    24.57000000     8.79000000
   O     35.74000000    24.07000000     7.96000000
   C     34.18000000    22.20000000     9.34000000
   C     32.94000000    21.32000000     9.21000000
   C     35.20000000    21.53000000    10.27000000
   C     32.20000000    21.13000000    10.53000000
   H     32.66000000    24.17000000    11.03000000
   H     33.03000000    23.95000000     8.93000000
   H     34.65000000    22.05000000     8.37000000
   H     33.23000000    20.45000000     8.62000000
   H     32.26000000    21.88000000     8.58000000
   H     36.21000000    21.91000000    10.10000000
   H     34.85000000    21.77000000    11.28000000
   H     35.20000000    20.46000000    10.11000000
   H     32.81000000    20.58000000    11.24000000
   H     31.90000000    22.01000000    11.10000000
   H     31.31000000    20.54000000    10.31000000
   N     35.07000000    25.85000000     9.15000000
   C     36.08000000    26.81000000     8.74000000
   C     37.47000000    26.41000000     9.23000000
   O     37.49000000    26.12000000    10.42000000
   C     35.76000000    28.21000000     9.24000000
   C     34.42000000    28.78000000     8.79000000
   O     34.13000000    28.67000000     7.58000000
   O     33.59000000    29.18000000     9.63000000
   H     34.56000000    26.00000000    10.01000000
   H     36.03000000    26.94000000     7.66000000
   H     36.50000000    28.95000000     8.92000000
   H     35.70000000    28.34000000    10.32000000
   N     38.55000000    26.27000000     8.46000000
   C     38.65000000    26.49000000     7.03000000
   C     40.05000000    26.32000000     6.45000000
   O     40.95000000    25.89000000     7.15000000
   H     39.40000000    25.89000000     8.84000000
   H     38.54000000    27.57000000     6.91000000
   H     37.83000000    26.00000000     6.51000000
   N     40.23000000    26.44000000     5.13000000
   C     39.16000000    26.47000000     4.15000000
   C     38.37000000    25.18000000     4.03000000
   O     37.15000000    25.24000000     3.89000000
   C     39.80000000    26.91000000     2.83000000
   C     38.67000000    27.22000000     1.86000000
   O     38.53000000    26.46000000     0.88000000
   O     37.95000000    28.25000000     1.89000000
   H     41.18000000    26.37000000     4.81000000
   H     38.50000000    27.26000000     4.50000000
   H     40.49000000    26.17000000     2.45000000
   H     40.44000000    27.77000000     3.01000000
   N     39.02000000    24.01000000     4.11000000
   C     40.42000000    23.65000000     4.06000000
   C     40.79000000    22.27000000     3.54000000
   O     39.89000000    21.54000000     3.11000000
   H     38.46000000    23.25000000     4.49000000
   H     40.72000000    23.67000000     5.11000000
   H     40.94000000    24.42000000     3.49000000
   N     42.07000000    21.91000000     3.44000000
   C     42.56000000    20.66000000     2.90000000
   C     42.77000000    19.48000000     3.84000000
   O     43.34000000    18.46000000     3.48000000
   C     43.73000000    21.01000000     1.98000000
   C     43.30000000    21.72000000     0.69000000
   C     42.72000000    23.11000000     0.90000000
   N     41.63000000    23.52000000     0.24000000
   O     43.15000000    23.94000000     1.70000000
   H     42.78000000    22.53000000     3.79000000
   H     41.74000000    20.27000000     2.30000000
   H     44.34000000    20.15000000     1.73000000
   H     44.47000000    21.59000000     2.53000000
   H     42.56000000    21.05000000     0.24000000
   H     44.11000000    21.84000000    -0.01000000
   H     41.08000000    22.90000000    -0.34000000
   H     41.41000000    24.50000000     0.29000000
   N     42.31000000    19.60000000     5.09000000
   C     42.17000000    18.46000000     5.97000000
   C     42.61000000    18.91000000     7.36000000
   O     42.03000000    19.84000000     7.90000000
   C     40.78000000    17.84000000     6.02000000
   C     40.80000000    16.40000000     6.53000000
   C     39.89000000    17.79000000     4.78000000
   H     41.78000000    20.44000000     5.27000000
   H     42.80000000    17.60000000     5.76000000
   H     40.12000000    18.47000000     6.61000000
   H     41.14000000    16.42000000     7.57000000
   H     39.79000000    16.01000000     6.56000000
   H     41.40000000    15.72000000     5.93000000
   H     40.31000000    17.16000000     3.99000000
   H     38.96000000    17.27000000     5.03000000
   H     39.68000000    18.77000000     4.37000000
   N     43.65000000    18.29000000     7.92000000
   C     44.06000000    18.49000000     9.30000000
   C     45.18000000    19.50000000     9.51000000
   O     45.64000000    19.75000000    10.62000000
   C     44.37000000    17.07000000     9.77000000
   C     43.23000000    16.09000000     9.52000000
   N     43.36000000    15.39000000     8.40000000
   O     42.20000000    15.95000000    10.19000000
   H     44.26000000    17.68000000     7.39000000
   H     43.29000000    18.89000000     9.95000000
   H     44.60000000    17.08000000    10.84000000
   H     45.20000000    16.76000000     9.14000000
   H     44.14000000    15.54000000     7.77000000
   H     42.85000000    14.53000000     8.29000000
   N     45.66000000    20.11000000     8.42000000
   C     46.69000000    21.12000000     8.53000000
   C     46.04000000    22.40000000     9.04000000
   O     44.93000000    22.78000000     8.68000000
   C     47.21000000    21.32000000     7.11000000
   C     48.30000000    22.35000000     6.98000000
   C     49.65000000    22.04000000     7.16000000
   C     47.96000000    23.68000000     6.70000000
   C     50.65000000    23.01000000     7.12000000
   C     48.94000000    24.67000000     6.59000000
   C     50.29000000    24.34000000     6.81000000
   O     51.17000000    25.35000000     6.59000000
   H     45.23000000    19.92000000     7.53000000
   H     47.50000000    20.81000000     9.19000000
   H     46.40000000    21.73000000     6.51000000
   H     47.60000000    20.39000000     6.69000000
   H     49.90000000    20.99000000     7.25000000
   H     46.92000000    23.96000000     6.59000000
   H     51.69000000    22.82000000     7.36000000
   H     48.70000000    25.69000000     6.32000000
   H     50.80000000    26.17000000     6.25000000
   N     46.67000000    23.06000000    10.01000000
   C     46.21000000    24.18000000    10.80000000
   C     44.94000000    23.90000000    11.59000000
   O     44.43000000    24.82000000    12.22000000
   C     46.05000000    25.44000000     9.95000000
   C     47.26000000    26.10000000     9.30000000
   C     48.42000000    26.22000000    10.28000000
   O     48.54000000    27.31000000    10.88000000
   O     49.14000000    25.23000000    10.52000000
   H     47.66000000    22.86000000    10.08000000
   H     47.05000000    24.27000000    11.50000000
   H     45.68000000    26.31000000    10.50000000
   H     45.37000000    25.22000000     9.13000000
   H     46.94000000    27.11000000     9.05000000
   H     47.50000000    25.60000000     8.35000000
   N     44.39000000    22.68000000    11.57000000
   C     43.08000000    22.38000000    12.09000000
   C     43.02000000    21.22000000    13.08000000
   O     41.96000000    20.89000000    13.61000000
   C     42.17000000    22.07000000    10.91000000
   C     41.71000000    23.27000000    10.09000000
   C     40.52000000    23.96000000    10.74000000
   O     39.37000000    23.49000000    10.57000000
   O     40.62000000    24.92000000    11.52000000
   H     44.81000000    22.01000000    10.94000000
   H     42.73000000    23.30000000    12.55000000
   H     41.37000000    21.43000000    11.28000000
   H     42.84000000    21.47000000    10.29000000
   H     41.43000000    22.84000000     9.13000000
   H     42.51000000    23.97000000     9.84000000
   N     44.18000000    20.64000000    13.41000000
   C     44.25000000    19.63000000    14.43000000
   H     44.69900000    20.05300000    15.32900000
   H     43.24600000    19.27400000    14.65900000
   H     44.85900000    18.79800000    14.07700000
   H     45.00000000    21.18000000    13.15000000
  Ca     38.21000000    24.61000000    12.56000000
   O     40.03000000    23.61000000    14.26000000
   H     40.79000000    23.04000000    14.16000000
   H     39.83000000    23.56000000    15.20000000
   O     37.47000000    22.08000000    12.96000000
   H     37.97000000    21.31000000    13.23000000
   H     36.57000000    21.87000000    13.20000000
   O     38.65000000    27.45000000    13.34000000
   H     37.87000000    27.97000000    13.17000000
   H     39.37000000    28.08000000    13.34000000

Ca 1.00



