%chk=loop1.holoCaM-CaMKII.run93.water2.chk
%nprocshared=20
%mem=10GB
%nosave
#b3lyp/svp scf=(tight,noincore,xqc) Test 
#IOP(5/87=12) Density=Current Pop=(MK,readradii) iop(6/33=2) iop(6/42=6)

loop1.holoCaM-CaMKII.run93.water2 

   0  1 
   C     48.23000000    13.49000000    -7.99000000
   C     48.15000000    12.09000000    -8.59000000
   O     47.10000000    11.46000000    -8.49000000
   H     48.88800000    14.10900000    -8.60000000
   H     47.23400000    13.93300000    -7.96700000
   H     48.62500000    13.42900000    -6.97600000
   N     49.22000000    11.44000000    -9.04000000
   C     49.28000000    10.12000000    -9.64000000
   C     49.29000000     8.96000000    -8.66000000
   O     50.16000000     8.10000000    -8.64000000
   C     50.45000000    10.01000000   -10.62000000
   C     50.48000000     8.77000000   -11.50000000
   O     51.58000000     8.28000000   -11.82000000
   O     49.36000000     8.30000000   -11.81000000
   H     50.09000000    11.95000000    -9.12000000
   H     48.39000000     9.99000000   -10.25000000
   H     51.35000000    10.05000000   -10.01000000
   H     50.32000000    10.86000000   -11.28000000
   N     48.34000000     9.02000000    -7.71000000
   C     48.03000000     7.90000000    -6.86000000
   C     47.96000000     6.50000000    -7.46000000
   O     48.26000000     5.56000000    -6.72000000
   C     46.68000000     8.18000000    -6.19000000
   C     46.64000000     9.40000000    -5.28000000
   C     45.26000000     9.61000000    -4.67000000
   C     45.26000000    10.80000000    -3.72000000
   N     45.25000000    12.06000000    -4.48000000
   H     47.69000000     9.80000000    -7.72000000
   H     48.72000000     7.83000000    -6.02000000
   H     46.41000000     7.27000000    -5.67000000
   H     45.88000000     8.21000000    -6.93000000
   H     46.90000000    10.30000000    -5.84000000
   H     47.34000000     9.18000000    -4.47000000
   H     45.04000000     8.68000000    -4.13000000
   H     44.47000000     9.77000000    -5.41000000
   H     46.16000000    10.80000000    -3.11000000
   H     44.28000000    10.86000000    -3.23000000
   H     44.64000000    12.67000000    -3.95000000
   H     46.15000000    12.51000000    -4.59000000
   H     44.83000000    11.93000000    -5.39000000
   N     47.63000000     6.36000000    -8.74000000
   C     47.44000000     5.11000000    -9.47000000
   C     48.70000000     4.63000000   -10.16000000
   O     48.72000000     3.51000000   -10.67000000
   C     46.39000000     5.26000000   -10.57000000
   C     46.72000000     6.40000000   -11.52000000
   O     46.91000000     6.18000000   -12.74000000
   O     46.56000000     7.56000000   -11.07000000
   H     47.44000000     7.22000000    -9.23000000
   H     47.11000000     4.31000000    -8.81000000
   H     45.40000000     5.39000000   -10.14000000
   H     46.35000000     4.33000000   -11.14000000
   N     49.79000000     5.41000000   -10.19000000
   C     51.03000000     5.07000000   -10.84000000
   C     50.93000000     4.72000000   -12.32000000
   O     51.11000000     3.58000000   -12.75000000
   H     49.81000000     6.25000000    -9.62000000
   H     51.51000000     4.26000000   -10.29000000
   H     51.72000000     5.91000000   -10.77000000
   N     50.73000000     5.72000000   -13.18000000
   C     50.93000000     5.71000000   -14.61000000
   C     51.81000000     6.74000000   -15.31000000
   O     51.86000000     6.87000000   -16.53000000
   C     49.62000000     5.62000000   -15.38000000
   C     48.68000000     6.81000000   -15.20000000
   O     47.50000000     6.83000000   -15.60000000
   O     49.18000000     7.86000000   -14.73000000
   H     50.59000000     6.61000000   -12.71000000
   H     51.45000000     4.79000000   -14.88000000
   H     49.19000000     4.68000000   -15.05000000
   H     49.76000000     5.51000000   -16.46000000
   N     52.56000000     7.52000000   -14.53000000
   C     53.44000000     8.55000000   -15.05000000
   C     52.74000000     9.85000000   -15.41000000
   O     53.46000000    10.76000000   -15.82000000
   H     52.44000000     7.48000000   -13.53000000
   H     53.95000000     8.23000000   -15.96000000
   H     54.18000000     8.79000000   -14.29000000
   N     51.41000000     9.86000000   -15.29000000
   C     50.67000000    10.96000000   -15.87000000
   C     49.73000000    11.53000000   -14.82000000
   O     49.24000000    10.87000000   -13.91000000
   C     49.98000000    10.55000000   -17.17000000
   C     50.95000000    10.79000000   -18.33000000
   O     49.71000000     9.17000000   -17.25000000
   H     50.94000000     8.98000000   -15.10000000
   H     51.34000000    11.79000000   -16.09000000
   H     49.13000000    11.21000000   -17.34000000
   H     49.29000000     8.86000000   -16.44000000
   H     51.53000000     9.87000000   -18.44000000
   H     50.34000000    10.81000000   -19.24000000
   H     51.69000000    11.56000000   -18.14000000
   N     49.32000000    12.78000000   -15.07000000
   C     48.23000000    13.55000000   -14.51000000
   C     47.24000000    14.03000000   -15.57000000
   O     47.56000000    14.64000000   -16.59000000
   C     48.80000000    14.76000000   -13.77000000
   C     49.80000000    14.55000000   -12.64000000
   C     47.65000000    15.58000000   -13.20000000
   C     50.67000000    15.74000000   -12.25000000
   H     49.86000000    13.22000000   -15.80000000
   H     47.72000000    12.91000000   -13.79000000
   H     49.40000000    15.36000000   -14.45000000
   H     50.46000000    13.74000000   -12.94000000
   H     49.23000000    14.29000000   -11.75000000
   H     47.11000000    16.13000000   -13.97000000
   H     46.97000000    14.85000000   -12.75000000
   H     48.02000000    16.25000000   -12.42000000
   H     50.15000000    16.49000000   -11.64000000
   H     51.26000000    15.31000000   -11.44000000
   H     51.07000000    16.12000000   -13.19000000
   N     45.95000000    13.87000000   -15.25000000
   C     44.81000000    14.36000000   -15.99000000
   C     44.19000000    15.61000000   -15.38000000
   O     44.50000000    15.94000000   -14.24000000
   C     43.67000000    13.36000000   -16.20000000
   C     43.98000000    12.03000000   -16.87000000
   O     43.22000000    13.09000000   -14.90000000
   H     45.79000000    13.22000000   -14.50000000
   H     45.11000000    14.63000000   -17.00000000
   H     42.87000000    13.92000000   -16.69000000
   H     43.84000000    12.42000000   -14.58000000
   H     44.02000000    12.20000000   -17.95000000
   H     44.96000000    11.66000000   -16.57000000
   H     43.09000000    11.40000000   -16.74000000
   N     43.26000000    16.29000000   -16.05000000
   C     42.40000000    17.31000000   -15.50000000
   C     41.38000000    16.81000000   -14.48000000
   O     40.93000000    17.55000000   -13.61000000
   C     41.68000000    18.14000000   -16.56000000
   C     42.47000000    18.93000000   -17.61000000
   O     40.80000000    17.40000000   -17.37000000
   H     43.04000000    15.93000000   -16.97000000
   H     42.97000000    18.03000000   -14.91000000
   H     41.06000000    18.86000000   -16.03000000
   H     40.81000000    17.82000000   -18.24000000
   H     43.03000000    19.75000000   -17.18000000
   H     43.28000000    18.32000000   -18.00000000
   H     41.86000000    19.25000000   -18.45000000
   N     41.08000000    15.51000000   -14.49000000
   C     40.21000000    14.89000000   -13.51000000
   C     40.86000000    14.65000000   -12.15000000
   O     40.37000000    14.97000000   -11.07000000
   C     39.75000000    13.56000000   -14.09000000
   C     38.87000000    13.71000000   -15.33000000
   C     38.39000000    12.40000000   -15.94000000
   C     37.60000000    12.73000000   -17.20000000
   N     36.28000000    13.31000000   -16.92000000
   H     41.69000000    14.95000000   -15.07000000
   H     39.36000000    15.53000000   -13.26000000
   H     39.25000000    13.02000000   -13.28000000
   H     40.66000000    13.02000000   -14.35000000
   H     39.37000000    14.24000000   -16.13000000
   H     38.01000000    14.31000000   -15.04000000
   H     37.68000000    11.86000000   -15.31000000
   H     39.30000000    11.85000000   -16.18000000
   H     37.55000000    11.82000000   -17.79000000
   H     38.14000000    13.38000000   -17.89000000
   H     35.89000000    13.60000000   -17.80000000
   H     35.65000000    12.61000000   -16.57000000
   H     36.32000000    14.14000000   -16.35000000
   N     42.12000000    14.21000000   -12.20000000
   C     42.98000000    14.07000000   -11.05000000
   C     43.23000000    15.43000000   -10.42000000
   O     43.15000000    15.51000000    -9.20000000
   C     44.28000000    13.39000000   -11.47000000
   C     44.16000000    11.91000000   -11.80000000
   C     45.33000000    11.22000000   -12.50000000
   O     46.16000000    10.48000000   -11.93000000
   O     45.37000000    11.42000000   -13.73000000
   H     42.45000000    13.88000000   -13.10000000
   H     42.54000000    13.45000000   -10.27000000
   H     45.01000000    13.55000000   -10.68000000
   H     44.76000000    13.93000000   -12.28000000
   H     43.25000000    11.87000000   -12.41000000
   H     43.97000000    11.32000000   -10.91000000
   N     43.66000000    16.46000000   -11.16000000
   C     43.89000000    17.84000000   -10.76000000
   H     44.77600000    18.22200000   -11.26800000
   H     43.02600000    18.44600000   -11.03200000
   H     44.04200000    17.88600000    -9.68200000
   H     43.94000000    16.30000000   -12.11000000
  Ca     47.34000000     8.77000000   -13.25000000
   O     46.81000000    10.19000000   -15.53000000
   H     46.19000000     9.79000000   -16.14000000
   H     46.28000000    10.81000000   -15.03000000
   O     45.10000000     8.14000000   -14.70000000
   H     45.33000000     7.21000000   -14.74000000
   H     45.01000000     8.41000000   -15.61000000

Ca 1.00



