%chk=loop4.apoCaM-CA-Ng.Init295.run61.water3.chk
%nprocshared=20
%mem=10GB
%nosave
#b3lyp/svp scf=(tight,noincore,xqc) Test 
#IOP(5/87=12) Density=Current Pop=(MK,readradii) iop(6/33=2) iop(6/42=6)

loop4.apoCaM-CA-Ng.Init295.run61.water3 

   -3  1 
   C     86.34000000    52.90000000    11.57000000
   C     87.05000000    51.55000000    11.51000000
   O     87.79000000    51.21000000    12.43000000
   H     85.38000000    52.78300000    12.07400000
   H     86.95500000    53.61100000    12.12200000
   H     86.17600000    53.27000000    10.55800000
   N     86.94000000    50.89000000    10.35000000
   C     87.70000000    49.70000000    10.04000000
   C     87.50000000    48.53000000    10.99000000
   O     88.37000000    47.68000000    11.18000000
   C     89.14000000    49.89000000     9.57000000
   C     89.29000000    51.25000000     8.89000000
   O     89.75000000    52.19000000     9.57000000
   O     88.90000000    51.40000000     7.72000000
   H     86.26000000    51.21000000     9.68000000
   H     87.25000000    49.30000000     9.13000000
   H     89.32000000    49.04000000     8.92000000
   H     89.82000000    49.87000000    10.42000000
   N     86.35000000    48.41000000    11.66000000
   C     86.07000000    47.34000000    12.60000000
   C     85.78000000    46.08000000    11.81000000
   O     84.90000000    46.00000000    10.96000000
   C     84.94000000    47.74000000    13.55000000
   C     85.34000000    48.80000000    14.57000000
   C     84.33000000    46.55000000    14.29000000
   C     84.42000000    49.11000000    15.74000000
   H     85.65000000    49.07000000    11.39000000
   H     87.01000000    47.28000000    13.15000000
   H     84.20000000    48.15000000    12.86000000
   H     85.62000000    49.72000000    14.07000000
   H     86.22000000    48.36000000    15.05000000
   H     85.01000000    46.03000000    14.96000000
   H     83.46000000    46.78000000    14.90000000
   H     83.91000000    45.81000000    13.61000000
   H     84.96000000    49.80000000    16.39000000
   H     83.55000000    49.61000000    15.31000000
   H     84.04000000    48.31000000    16.38000000
   N     86.39000000    44.96000000    12.21000000
   C     87.58000000    44.80000000    13.02000000
   C     88.89000000    45.08000000    12.29000000
   O     89.82000000    45.60000000    12.91000000
   C     87.69000000    43.41000000    13.64000000
   C     86.52000000    43.23000000    14.59000000
   O     86.51000000    43.93000000    15.62000000
   O     85.55000000    42.47000000    14.34000000
   H     86.03000000    44.10000000    11.83000000
   H     87.50000000    45.52000000    13.84000000
   H     88.64000000    43.15000000    14.12000000
   H     87.63000000    42.75000000    12.77000000
   N     88.95000000    44.75000000    11.00000000
   C     90.04000000    45.21000000    10.17000000
   C     91.45000000    44.81000000    10.61000000
   O     91.65000000    43.75000000    11.19000000
   H     88.16000000    44.30000000    10.55000000
   H     89.95000000    46.29000000    10.12000000
   H     89.95000000    44.86000000     9.14000000
   N     92.43000000    45.68000000    10.39000000
   C     93.80000000    45.31000000    10.70000000
   C     94.11000000    45.42000000    12.18000000
   O     95.14000000    44.92000000    12.63000000
   C     94.76000000    46.12000000     9.83000000
   C     94.86000000    47.61000000    10.13000000
   O     95.16000000    47.93000000    11.30000000
   O     94.56000000    48.36000000     9.17000000
   H     92.28000000    46.68000000    10.26000000
   H     93.97000000    44.27000000    10.41000000
   H     94.48000000    45.89000000     8.80000000
   H     95.76000000    45.71000000     9.94000000
   N     93.33000000    46.12000000    13.00000000
   C     93.53000000    46.18000000    14.44000000
   C     94.57000000    47.19000000    14.89000000
   O     94.63000000    47.44000000    16.09000000
   H     92.48000000    46.56000000    12.67000000
   H     93.85000000    45.20000000    14.77000000
   H     92.59000000    46.44000000    14.93000000
   N     95.35000000    47.85000000    14.03000000
   C     96.42000000    48.79000000    14.31000000
   C     96.07000000    50.08000000    15.03000000
   O     96.84000000    50.59000000    15.84000000
   C     97.79000000    48.15000000    14.56000000
   C     97.81000000    47.59000000    15.98000000
   C     99.12000000    46.85000000    16.20000000
   N     99.29000000    45.63000000    15.69000000
   O    100.03000000    47.42000000    16.80000000
   H     95.22000000    47.58000000    13.06000000
   H     96.61000000    49.19000000    13.31000000
   H     98.58000000    48.90000000    14.61000000
   H     98.02000000    47.41000000    13.80000000
   H     97.02000000    46.84000000    16.07000000
   H     97.70000000    48.41000000    16.69000000
   H     98.51000000    45.16000000    15.25000000
   H    100.17000000    45.14000000    15.76000000
   N     94.90000000    50.66000000    14.75000000
   C     94.56000000    51.99000000    15.21000000
   C     95.24000000    53.10000000    14.42000000
   O     95.48000000    53.04000000    13.22000000
   C     93.09000000    52.14000000    15.57000000
   C     92.17000000    51.83000000    14.39000000
   C     92.77000000    51.21000000    16.74000000
   H     94.32000000    50.28000000    14.01000000
   H     95.08000000    52.05000000    16.17000000
   H     92.82000000    53.12000000    15.97000000
   H     92.67000000    52.21000000    13.50000000
   H     91.96000000    50.76000000    14.38000000
   H     91.27000000    52.40000000    14.59000000
   H     93.07000000    50.18000000    16.55000000
   H     93.37000000    51.50000000    17.60000000
   H     91.71000000    51.32000000    16.98000000
   N     95.41000000    54.21000000    15.14000000
   C     95.78000000    55.49000000    14.58000000
   C     95.05000000    56.58000000    15.35000000
   O     94.73000000    56.43000000    16.52000000
   C     97.29000000    55.68000000    14.54000000
   C     97.81000000    56.90000000    13.79000000
   N     97.39000000    56.94000000    12.52000000
   O     98.39000000    57.85000000    14.31000000
   H     95.29000000    54.22000000    16.15000000
   H     95.42000000    55.53000000    13.55000000
   H     97.74000000    54.80000000    14.08000000
   H     97.62000000    55.78000000    15.58000000
   H     97.08000000    56.08000000    12.10000000
   H     97.61000000    57.72000000    11.92000000
   N     94.84000000    57.70000000    14.64000000
   C     94.24000000    58.94000000    15.08000000
   C     93.91000000    59.80000000    13.86000000
   O     94.03000000    61.02000000    13.84000000
   C     95.11000000    59.67000000    16.11000000
   C     94.31000000    60.06000000    17.33000000
   C     94.76000000    59.72000000    18.61000000
   C     93.08000000    60.71000000    17.16000000
   C     93.94000000    59.97000000    19.72000000
   C     92.33000000    61.11000000    18.28000000
   C     92.76000000    60.72000000    19.56000000
   O     91.99000000    61.16000000    20.60000000
   H     95.19000000    57.73000000    13.69000000
   H     93.30000000    58.67000000    15.54000000
   H     95.52000000    60.57000000    15.65000000
   H     95.87000000    58.95000000    16.40000000
   H     95.74000000    59.32000000    18.84000000
   H     92.75000000    60.95000000    16.17000000
   H     94.24000000    59.71000000    20.72000000
   H     91.50000000    61.77000000    18.09000000
   H     91.34000000    61.82000000    20.36000000
   N     93.43000000    59.15000000    12.79000000
   C     93.13000000    59.82000000    11.54000000
   C     91.80000000    60.55000000    11.64000000
   O     91.70000000    61.67000000    11.15000000
   C     93.04000000    58.74000000    10.46000000
   C     94.41000000    58.24000000    10.03000000
   C     95.04000000    59.21000000     9.03000000
   O     95.16000000    58.83000000     7.85000000
   O     95.49000000    60.32000000     9.41000000
   H     93.37000000    58.15000000    12.83000000
   H     93.94000000    60.46000000    11.19000000
   H     92.68000000    59.28000000     9.59000000
   H     92.36000000    57.94000000    10.76000000
   H     94.34000000    57.26000000     9.56000000
   H     95.10000000    57.97000000    10.83000000
   N     90.72000000    60.14000000    12.30000000
   C     90.40000000    58.84000000    12.85000000
   C     90.44000000    58.95000000    14.37000000
   O     90.46000000    60.02000000    14.96000000
   C     89.04000000    58.36000000    12.34000000
   C     88.92000000    58.11000000    10.84000000
   C     89.73000000    57.00000000    10.20000000
   O     90.26000000    57.13000000     9.08000000
   O     89.81000000    55.92000000    10.82000000
   H     90.07000000    60.90000000    12.45000000
   H     91.20000000    58.19000000    12.50000000
   H     88.27000000    59.10000000    12.56000000
   H     88.79000000    57.38000000    12.74000000
   H     89.29000000    59.02000000    10.37000000
   H     87.88000000    57.95000000    10.56000000
   N     90.28000000    57.76000000    14.95000000
   C     89.90000000    57.52000000    16.33000000
   H     88.86700000    57.17400000    16.36700000
   H     90.55300000    56.76100000    16.76000000
   H     89.99300000    58.44500000    16.89900000
   H     90.11000000    56.93000000    14.39000000
  Ca     90.16000000    54.46000000     8.61000000
   O     92.16000000    55.76000000     7.11000000
   H     92.92000000    55.21000000     6.94000000
   H     92.30000000    56.54000000     6.58000000
   O     92.63000000    53.88000000     9.67000000
   H     93.52000000    54.00000000     9.34000000
   H     92.74000000    53.37000000    10.47000000
   O     91.25000000    52.93000000     6.75000000
   H     91.33000000    52.58000000     5.86000000
   H     91.64000000    52.26000000     7.31000000

Ca 1.00



