%chk=loop1.holoCaM.run50.water2.chk
%nprocshared=20
%mem=10GB
%nosave
#b3lyp/svp scf=(tight,noincore,xqc) Test 
#IOP(5/87=12) Density=Current Pop=(MK,readradii) iop(6/33=2) iop(6/42=6)

loop1.holoCaM.run50.water2 

   0  1 
   C     56.06000000    82.52000000     0.44300000
   C     55.01000000    81.86000000     1.32300000
   O     54.18000000    81.07000000     0.87300000
   H     56.98300000    81.94200000     0.48400000
   H     55.70100000    82.55700000    -0.58600000
   H     56.24900000    83.53200000     0.79900000
   N     54.92000000    82.21000000     2.60300000
   C     53.92000000    81.88000000     3.60300000
   C     52.63000000    82.55000000     3.14300000
   O     52.28000000    83.71000000     3.33300000
   C     54.30000000    82.38000000     4.99300000
   C     53.25000000    82.18000000     6.08300000
   O     53.43000000    82.80000000     7.15300000
   O     52.24000000    81.47000000     5.87300000
   H     55.68000000    82.77000000     2.97300000
   H     53.70000000    80.81000000     3.63300000
   H     54.50000000    83.45000000     4.94300000
   H     55.16000000    81.76000000     5.22300000
   N     51.90000000    81.77000000     2.34300000
   C     50.73000000    82.23000000     1.61300000
   C     49.56000000    82.63000000     2.50300000
   O     48.75000000    83.43000000     2.04300000
   C     50.28000000    81.14000000     0.65300000
   C     49.33000000    81.61000000    -0.44700000
   C     48.86000000    80.38000000    -1.22700000
   C     47.83000000    79.59000000    -0.41700000
   N     46.89000000    78.81000000    -1.23700000
   H     52.16000000    80.80000000     2.21300000
   H     50.97000000    83.11000000     1.01300000
   H     49.68000000    80.47000000     1.27300000
   H     51.16000000    80.75000000     0.14300000
   H     49.97000000    82.19000000    -1.10700000
   H     48.48000000    82.11000000     0.00300000
   H     49.67000000    79.70000000    -1.48700000
   H     48.56000000    80.67000000    -2.22700000
   H     47.28000000    80.26000000     0.24300000
   H     48.40000000    78.99000000     0.30300000
   H     46.18000000    78.22000000    -0.81700000
   H     46.34000000    79.50000000    -1.72700000
   H     47.41000000    78.26000000    -1.90700000
   N     49.43000000    82.17000000     3.75300000
   C     48.33000000    82.31000000     4.68300000
   C     48.69000000    82.83000000     6.07300000
   O     47.91000000    82.77000000     7.01300000
   C     47.48000000    81.05000000     4.74300000
   C     48.14000000    79.81000000     5.34300000
   O     47.58000000    78.70000000     5.29300000
   O     49.34000000    79.76000000     5.68300000
   H     50.13000000    81.49000000     4.00300000
   H     47.62000000    83.07000000     4.36300000
   H     47.07000000    80.87000000     3.74300000
   H     46.58000000    81.31000000     5.30300000
   N     49.93000000    83.30000000     6.23300000
   C     50.38000000    84.19000000     7.29300000
   C     50.28000000    83.57000000     8.68300000
   O     49.58000000    84.11000000     9.53300000
   H     50.59000000    83.03000000     5.52300000
   H     49.80000000    85.11000000     7.26300000
   H     51.40000000    84.46000000     7.02300000
   N     51.24000000    82.68000000     8.95300000
   C     51.41000000    82.06000000    10.24300000
   C     52.84000000    82.02000000    10.75300000
   O     53.18000000    81.64000000    11.87300000
   C     50.75000000    80.68000000    10.24300000
   C     51.18000000    79.74000000     9.12300000
   O     50.32000000    79.05000000     8.54300000
   O     52.38000000    79.65000000     8.78300000
   H     51.82000000    82.38000000     8.18300000
   H     50.93000000    82.68000000    11.01300000
   H     49.66000000    80.75000000    10.21300000
   H     50.95000000    80.25000000    11.21300000
   N     53.77000000    82.50000000     9.93300000
   C     55.20000000    82.42000000    10.20300000
   C     55.83000000    81.09000000     9.83300000
   O     56.89000000    80.78000000    10.38300000
   H     53.45000000    82.98000000     9.10300000
   H     55.46000000    82.68000000    11.23300000
   H     55.65000000    83.19000000     9.57300000
   N     55.14000000    80.22000000     9.09300000
   C     55.74000000    79.01000000     8.58300000
   C     55.36000000    78.69000000     7.14300000
   O     54.38000000    79.18000000     6.58300000
   C     55.33000000    77.80000000     9.42300000
   C     55.74000000    77.85000000    10.89300000
   O     53.93000000    77.68000000     9.43300000
   H     54.21000000    80.41000000     8.75300000
   H     56.82000000    79.11000000     8.67300000
   H     55.88000000    77.01000000     8.91300000
   H     53.46000000    78.52000000     9.34300000
   H     55.14000000    78.54000000    11.50300000
   H     55.75000000    76.88000000    11.38300000
   H     56.77000000    78.18000000    11.02300000
   N     56.07000000    77.74000000     6.52300000
   C     56.08000000    77.31000000     5.13300000
   C     55.94000000    75.80000000     5.08300000
   O     56.73000000    74.98000000     5.54300000
   C     57.38000000    77.72000000     4.45300000
   C     57.39000000    79.21000000     4.14300000
   C     57.67000000    76.85000000     3.23300000
   C     58.67000000    79.66000000     3.43300000
   H     56.74000000    77.25000000     7.09300000
   H     55.25000000    77.78000000     4.60300000
   H     58.16000000    77.49000000     5.17300000
   H     57.38000000    79.71000000     5.11300000
   H     56.53000000    79.56000000     3.56300000
   H     57.91000000    75.83000000     3.53300000
   H     56.73000000    76.87000000     2.66300000
   H     58.51000000    77.22000000     2.65300000
   H     59.47000000    79.05000000     3.84300000
   H     58.46000000    79.46000000     2.38300000
   H     58.78000000    80.74000000     3.58300000
   N     54.79000000    75.40000000     4.52300000
   C     54.52000000    74.03000000     4.13300000
   C     54.88000000    73.69000000     2.69300000
   O     55.21000000    74.56000000     1.88300000
   C     53.02000000    73.75000000     4.25300000
   C     52.22000000    74.39000000     3.12300000
   O     52.66000000    72.39000000     4.39300000
   H     54.12000000    76.10000000     4.26300000
   H     55.05000000    73.33000000     4.78300000
   H     52.69000000    74.26000000     5.15300000
   H     51.72000000    72.25000000     4.25300000
   H     52.23000000    73.88000000     2.15300000
   H     51.26000000    74.56000000     3.60300000
   H     52.54000000    75.43000000     3.03300000
   N     54.89000000    72.40000000     2.36300000
   C     55.28000000    71.93000000     1.05300000
   C     54.67000000    72.60000000    -0.15700000
   O     55.34000000    72.78000000    -1.16700000
   C     55.16000000    70.42000000     0.87300000
   C     56.12000000    69.63000000     1.77300000
   O     53.92000000    69.93000000     1.34300000
   H     54.72000000    71.73000000     3.10300000
   H     56.36000000    72.12000000     1.04300000
   H     55.46000000    70.16000000    -0.13700000
   H     53.40000000    69.66000000     0.58300000
   H     55.96000000    68.56000000     1.65300000
   H     57.15000000    69.93000000     1.63300000
   H     55.98000000    69.83000000     2.83300000
   N     53.40000000    73.01000000    -0.02700000
   C     52.64000000    73.80000000    -0.97700000
   C     53.17000000    75.22000000    -1.04700000
   O     53.13000000    75.77000000    -2.14700000
   C     51.17000000    73.73000000    -0.59700000
   C     50.62000000    72.31000000    -0.43700000
   C     49.13000000    72.36000000    -0.14700000
   C     48.66000000    70.91000000    -0.02700000
   N     49.02000000    70.06000000    -1.17700000
   H     52.83000000    72.65000000     0.72300000
   H     52.76000000    73.48000000    -2.01700000
   H     50.64000000    74.16000000    -1.44700000
   H     51.05000000    74.36000000     0.28300000
   H     51.15000000    71.77000000     0.35300000
   H     50.69000000    71.86000000    -1.42700000
   H     48.55000000    72.86000000    -0.92700000
   H     48.91000000    72.84000000     0.81300000
   H     47.58000000    71.03000000    -0.02700000
   H     49.07000000    70.54000000     0.91300000
   H     48.73000000    69.12000000    -0.95700000
   H     48.44000000    70.37000000    -1.94700000
   H     50.01000000    70.17000000    -1.34700000
   N     53.74000000    75.83000000    -0.00700000
   C     54.27000000    77.18000000    -0.03700000
   C     55.74000000    77.11000000    -0.42700000
   O     56.24000000    77.97000000    -1.14700000
   C     54.13000000    77.83000000     1.33300000
   C     52.72000000    78.04000000     1.86300000
   C     52.54000000    78.38000000     3.33300000
   O     52.95000000    77.65000000     4.26300000
   O     51.70000000    79.23000000     3.72300000
   H     54.05000000    75.35000000     0.82300000
   H     53.78000000    77.81000000    -0.78700000
   H     54.64000000    78.79000000     1.42300000
   H     54.59000000    77.20000000     2.10300000
   H     52.11000000    77.14000000     1.74300000
   H     52.25000000    78.74000000     1.17300000
   N     56.44000000    76.04000000    -0.06700000
   C     57.79000000    75.80000000    -0.54700000
   H     58.47700000    75.77500000     0.29900000
   H     57.82500000    74.84500000    -1.07100000
   H     58.08200000    76.60000000    -1.22700000
   H     56.03000000    75.43000000     0.62300000
  Ca     51.67000000    78.93000000     6.27000000
   O     52.48000000    76.48000000     7.33000000
   H     52.07000000    75.64000000     7.14000000
   H     52.79000000    76.41000000     8.23000000
   O     49.79000000    76.95000000     5.98000000
   H     49.09000000    77.60000000     6.04000000
   H     49.39000000    76.21000000     5.51000000

Ca 1.00



