%chk=loop2.holoCaM.run86.water1.chk
%nprocshared=20
%mem=10GB
%nosave
#b3lyp/svp scf=(tight,noincore,xqc) Test 
#IOP(5/87=12) Density=Current Pop=(MK,readradii) iop(6/33=2) iop(6/42=6)

loop2.holoCaM.run86.water1 

   -2  1 
   C     35.43000000    69.85000000    36.29000000
   C     34.81000000    69.67000000    37.68000000
   O     35.02000000    68.56000000    38.16000000
   H     36.44700000    69.45700000    36.29300000
   H     34.83400000    69.31100000    35.55300000
   H     35.45200000    70.91000000    36.03600000
   N     34.04000000    70.60000000    38.24000000
   C     33.55000000    70.61000000    39.60000000
   C     32.56000000    69.46000000    39.65000000
   O     31.62000000    69.36000000    38.86000000
   C     32.95000000    71.97000000    39.97000000
   C     32.37000000    72.19000000    41.36000000
   O     32.64000000    71.34000000    42.24000000
   O     31.69000000    73.20000000    41.65000000
   H     33.70000000    71.38000000    37.69000000
   H     34.36000000    70.35000000    40.28000000
   H     32.18000000    72.17000000    39.22000000
   H     33.72000000    72.74000000    39.90000000
   N     32.71000000    68.62000000    40.69000000
   C     32.21000000    67.29000000    40.96000000
   C     31.44000000    67.16000000    42.27000000
   O     30.99000000    66.04000000    42.53000000
   C     33.28000000    66.22000000    40.79000000
   H     33.49000000    68.81000000    41.30000000
   H     31.38000000    67.10000000    40.28000000
   H     32.86000000    65.24000000    40.59000000
   H     34.06000000    66.58000000    40.12000000
   H     33.79000000    66.07000000    41.75000000
   N     31.20000000    68.25000000    42.99000000
   C     30.10000000    68.42000000    43.92000000
   C     29.34000000    69.73000000    43.70000000
   O     28.49000000    70.05000000    44.53000000
   C     30.46000000    68.10000000    45.36000000
   C     31.61000000    68.93000000    45.92000000
   O     32.12000000    68.61000000    47.01000000
   O     32.08000000    69.90000000    45.28000000
   H     31.80000000    69.05000000    42.82000000
   H     29.35000000    67.66000000    43.68000000
   H     30.64000000    67.03000000    45.40000000
   H     29.58000000    68.29000000    45.98000000
   N     29.52000000    70.33000000    42.53000000
   C     28.85000000    71.54000000    42.09000000
   C     28.93000000    72.80000000    42.95000000
   O     28.26000000    73.79000000    42.69000000
   H     29.99000000    69.86000000    41.77000000
   H     27.80000000    71.34000000    41.86000000
   H     29.27000000    71.83000000    41.13000000
   N     29.78000000    72.78000000    43.98000000
   C     29.77000000    73.86000000    44.95000000
   C     30.58000000    75.10000000    44.60000000
   O     30.75000000    75.95000000    45.47000000
   C     30.14000000    73.28000000    46.31000000
   C     31.60000000    72.87000000    46.48000000
   N     31.92000000    72.42000000    47.69000000
   O     32.34000000    72.95000000    45.51000000
   H     30.24000000    71.95000000    44.31000000
   H     28.73000000    74.16000000    45.02000000
   H     29.44000000    72.46000000    46.42000000
   H     29.95000000    73.93000000    47.17000000
   H     31.22000000    72.26000000    48.41000000
   H     32.82000000    71.97000000    47.78000000
   N     31.03000000    75.19000000    43.35000000
   C     31.52000000    76.42000000    42.76000000
   C     32.96000000    76.75000000    43.11000000
   O     33.51000000    77.67000000    42.51000000
   H     31.16000000    74.30000000    42.89000000
   H     30.91000000    77.25000000    43.12000000
   H     31.48000000    76.35000000    41.67000000
   N     33.60000000    76.00000000    44.01000000
   C     35.02000000    76.05000000    44.31000000
   C     35.68000000    74.72000000    43.98000000
   O     35.04000000    73.67000000    43.92000000
   C     35.27000000    76.54000000    45.73000000
   C     34.57000000    77.89000000    45.93000000
   O     34.72000000    75.61000000    46.64000000
   H     33.10000000    75.23000000    44.44000000
   H     35.45000000    76.82000000    43.67000000
   H     36.35000000    76.59000000    45.86000000
   H     34.88000000    75.97000000    47.51000000
   H     34.96000000    78.58000000    45.19000000
   H     33.48000000    77.89000000    45.89000000
   H     34.92000000    78.16000000    46.93000000
   N     37.00000000    74.76000000    43.85000000
   C     37.72000000    73.69000000    43.19000000
   C     38.50000000    72.90000000    44.22000000
   O     39.39000000    73.31000000    44.95000000
   C     38.61000000    74.17000000    42.04000000
   C     37.92000000    74.93000000    40.92000000
   C     39.52000000    73.05000000    41.54000000
   C     37.07000000    74.00000000    40.06000000
   H     37.47000000    75.66000000    43.84000000
   H     37.05000000    72.98000000    42.71000000
   H     39.24000000    74.95000000    42.47000000
   H     38.68000000    75.47000000    40.35000000
   H     37.24000000    75.64000000    41.41000000
   H     39.00000000    72.18000000    41.14000000
   H     40.14000000    73.50000000    40.76000000
   H     40.26000000    72.69000000    42.26000000
   H     36.20000000    73.66000000    40.63000000
   H     36.89000000    74.57000000    39.15000000
   H     37.60000000    73.11000000    39.71000000
   N     38.09000000    71.63000000    44.38000000
   C     38.77000000    70.71000000    45.26000000
   C     39.93000000    70.07000000    44.50000000
   O     40.05000000    70.12000000    43.28000000
   C     37.82000000    69.66000000    45.82000000
   C     36.60000000    70.12000000    46.61000000
   O     35.52000000    70.01000000    46.00000000
   O     36.69000000    70.59000000    47.77000000
   H     37.44000000    71.17000000    43.75000000
   H     39.17000000    71.14000000    46.18000000
   H     38.30000000    68.95000000    46.50000000
   H     37.48000000    69.06000000    44.98000000
   N     40.92000000    69.50000000    45.18000000
   C     42.02000000    68.83000000    44.50000000
   C     41.71000000    67.70000000    43.53000000
   O     42.35000000    67.75000000    42.48000000
   C     43.00000000    68.33000000    45.55000000
   C     44.31000000    67.77000000    45.04000000
   C     45.13000000    68.39000000    44.09000000
   C     44.71000000    66.53000000    45.56000000
   C     46.21000000    67.70000000    43.53000000
   C     45.88000000    65.92000000    45.08000000
   C     46.68000000    66.50000000    44.09000000
   H     40.94000000    69.58000000    46.19000000
   H     42.49000000    69.65000000    43.95000000
   H     42.48000000    67.54000000    46.08000000
   H     43.15000000    69.07000000    46.33000000
   H     44.89000000    69.39000000    43.76000000
   H     44.07000000    66.06000000    46.28000000
   H     46.79000000    68.17000000    42.75000000
   H     46.27000000    65.05000000    45.59000000
   H     47.56000000    65.96000000    43.78000000
   N     40.72000000    66.82000000    43.74000000
   C     40.23000000    65.91000000    42.73000000
   C     39.71000000    66.56000000    41.46000000
   O     39.71000000    65.96000000    40.39000000
   C     39.06000000    65.19000000    43.38000000
   C     39.41000000    65.24000000    44.87000000
   C     40.03000000    66.63000000    44.99000000
   H     41.06000000    65.29000000    42.37000000
   H     38.14000000    65.76000000    43.30000000
   H     38.81000000    64.20000000    42.99000000
   H     38.54000000    65.16000000    45.51000000
   H     40.12000000    64.43000000    45.03000000
   H     39.32000000    67.45000000    45.12000000
   H     40.73000000    66.65000000    45.82000000
   N     39.36000000    67.85000000    41.54000000
   C     38.71000000    68.52000000    40.43000000
   C     39.78000000    69.38000000    39.78000000
   O     39.97000000    69.42000000    38.56000000
   C     37.61000000    69.47000000    40.91000000
   C     36.51000000    68.69000000    41.62000000
   C     35.53000000    69.64000000    42.32000000
   O     35.82000000    70.83000000    42.58000000
   O     34.51000000    69.17000000    42.85000000
   H     39.49000000    68.39000000    42.39000000
   H     38.31000000    67.76000000    39.76000000
   H     37.12000000    69.99000000    40.10000000
   H     38.06000000    70.19000000    41.59000000
   H     36.97000000    67.99000000    42.31000000
   H     35.90000000    68.18000000    40.88000000
   N     40.75000000    69.92000000    40.52000000
   C     42.02000000    70.45000000    40.09000000
   H     42.78000000    69.67100000    40.15700000
   H     41.94100000    70.79200000    39.05800000
   H     42.30100000    71.28700000    40.73000000
   H     40.70000000    69.75000000    41.52000000
  Ca     34.00000000    71.31000000    44.37000000
   O     35.08000000    72.60000000    46.61000000
   H     35.67000000    72.14000000    47.21000000
   H     35.35000000    73.52000000    46.67000000

Ca 1.00



