%chk=loop2.apoCaM-CA-Ng.Init31.run97.water4.chk
%nprocshared=20
%mem=10GB
%nosave
#b3lyp/svp scf=(tight,noincore,xqc) Test 
#IOP(5/87=12) Density=Current Pop=(MK,readradii) iop(6/33=2) iop(6/42=6)

loop2.apoCaM-CA-Ng.Init31.run97.water4 

   -2  1 
   C     50.44000000    38.79000000    20.60000000
   C     50.94000000    37.38000000    20.89000000
   O     50.11000000    36.53000000    21.19000000
   H     49.49700000    38.95500000    21.12100000
   H     51.17700000    39.51600000    20.94500000
   H     50.28700000    38.90900000    19.52700000
   N     52.23000000    37.04000000    20.90000000
   C     53.42000000    37.84000000    20.68000000
   C     54.51000000    37.41000000    21.65000000
   O     55.35000000    36.56000000    21.34000000
   C     53.80000000    37.75000000    19.21000000
   C     53.80000000    36.39000000    18.52000000
   O     53.78000000    35.34000000    19.20000000
   O     53.63000000    36.34000000    17.28000000
   H     52.39000000    36.10000000    21.23000000
   H     53.13000000    38.88000000    20.86000000
   H     54.81000000    38.16000000    19.15000000
   H     53.13000000    38.38000000    18.62000000
   N     54.58000000    38.16000000    22.76000000
   C     55.54000000    37.78000000    23.78000000
   C     55.24000000    36.51000000    24.55000000
   O     56.03000000    35.96000000    25.32000000
   C     55.77000000    39.03000000    24.63000000
   H     54.14000000    39.05000000    22.89000000
   H     56.55000000    37.64000000    23.39000000
   H     54.82000000    39.39000000    25.03000000
   H     56.48000000    38.80000000    25.42000000
   H     56.19000000    39.79000000    23.97000000
   N     54.08000000    35.91000000    24.28000000
   C     53.63000000    34.68000000    24.89000000
   C     54.55000000    33.50000000    24.59000000
   O     55.15000000    33.47000000    23.52000000
   C     52.24000000    34.37000000    24.33000000
   C     52.15000000    34.07000000    22.84000000
   O     53.00000000    34.51000000    22.04000000
   O     51.12000000    33.54000000    22.37000000
   H     53.39000000    36.40000000    23.74000000
   H     53.48000000    34.84000000    25.96000000
   H     51.64000000    35.27000000    24.45000000
   H     51.77000000    33.59000000    24.93000000
   N     54.67000000    32.59000000    25.56000000
   C     55.38000000    31.34000000    25.44000000
   C     54.54000000    30.37000000    24.62000000
   O     53.40000000    30.15000000    25.02000000
   H     54.19000000    32.84000000    26.42000000
   H     55.55000000    31.08000000    26.49000000
   H     56.29000000    31.55000000    24.89000000
   N     55.09000000    29.67000000    23.63000000
   C     54.32000000    28.70000000    22.87000000
   C     55.08000000    27.40000000    22.63000000
   O     56.28000000    27.42000000    22.35000000
   C     53.92000000    29.38000000    21.57000000
   C     53.15000000    30.68000000    21.77000000
   N     51.88000000    30.63000000    22.17000000
   O     53.70000000    31.77000000    21.69000000
   H     56.02000000    29.93000000    23.30000000
   H     53.45000000    28.44000000    23.46000000
   H     53.13000000    28.77000000    21.12000000
   H     54.68000000    29.57000000    20.82000000
   H     51.44000000    29.72000000    22.26000000
   H     51.36000000    31.49000000    22.21000000
   N     54.44000000    26.24000000    22.77000000
   C     55.11000000    24.98000000    22.58000000
   C     56.35000000    24.64000000    23.40000000
   O     57.24000000    24.01000000    22.84000000
   H     53.43000000    26.21000000    22.66000000
   H     55.38000000    24.97000000    21.53000000
   H     54.43000000    24.15000000    22.76000000
   N     56.39000000    25.01000000    24.69000000
   C     55.42000000    25.51000000    25.64000000
   C     55.98000000    26.57000000    26.58000000
   O     55.22000000    27.34000000    27.18000000
   C     54.74000000    24.41000000    26.45000000
   C     53.44000000    23.87000000    25.84000000
   O     55.53000000    23.24000000    26.49000000
   H     57.33000000    24.85000000    25.00000000
   H     54.61000000    25.99000000    25.09000000
   H     54.51000000    24.74000000    27.46000000
   H     55.18000000    22.81000000    27.28000000
   H     52.78000000    24.65000000    25.49000000
   H     53.66000000    23.25000000    24.97000000
   H     52.92000000    23.20000000    26.53000000
   N     57.28000000    26.64000000    26.87000000
   C     58.01000000    27.55000000    27.73000000
   C     57.57000000    27.52000000    29.19000000
   O     56.49000000    27.98000000    29.55000000
   C     58.08000000    28.96000000    27.14000000
   C     58.27000000    29.13000000    25.64000000
   C     59.08000000    29.75000000    27.98000000
   C     59.55000000    28.51000000    25.10000000
   H     57.81000000    25.82000000    26.62000000
   H     59.05000000    27.25000000    27.61000000
   H     57.09000000    29.38000000    27.31000000
   H     58.25000000    30.20000000    25.44000000
   H     57.39000000    28.68000000    25.17000000
   H     60.11000000    29.40000000    27.94000000
   H     59.00000000    30.78000000    27.64000000
   H     58.78000000    29.79000000    29.03000000
   H     60.41000000    28.93000000    25.62000000
   H     59.53000000    27.44000000    25.32000000
   H     59.57000000    28.68000000    24.02000000
   N     58.26000000    26.94000000    30.17000000
   C     59.66000000    26.56000000    30.20000000
   C     60.48000000    27.68000000    30.80000000
   O     61.15000000    28.37000000    30.03000000
   C     59.83000000    25.19000000    30.85000000
   C     59.02000000    24.98000000    32.12000000
   O     59.13000000    23.87000000    32.69000000
   O     58.51000000    25.97000000    32.68000000
   H     57.85000000    27.02000000    31.09000000
   H     60.11000000    26.41000000    29.22000000
   H     60.88000000    24.91000000    30.98000000
   H     59.32000000    24.46000000    30.21000000
   N     60.52000000    27.74000000    32.13000000
   C     61.28000000    28.74000000    32.85000000
   C     61.84000000    28.04000000    34.08000000
   O     61.13000000    27.33000000    34.79000000
   C     60.51000000    30.01000000    33.18000000
   C     59.46000000    29.97000000    34.27000000
   C     59.81000000    30.46000000    35.53000000
   C     58.21000000    29.39000000    34.02000000
   C     58.85000000    30.52000000    36.55000000
   C     57.32000000    29.26000000    35.09000000
   C     57.68000000    29.78000000    36.34000000
   H     59.95000000    27.17000000    32.74000000
   H     62.15000000    29.05000000    32.28000000
   H     59.94000000    30.29000000    32.28000000
   H     61.26000000    30.76000000    33.41000000
   H     60.80000000    30.87000000    35.63000000
   H     57.94000000    28.91000000    33.09000000
   H     59.14000000    31.02000000    37.47000000
   H     56.35000000    28.80000000    34.97000000
   H     56.97000000    29.74000000    37.16000000
   N     63.15000000    28.18000000    34.33000000
   C     63.94000000    29.33000000    33.96000000
   C     64.58000000    29.17000000    32.59000000
   O     64.42000000    28.19000000    31.86000000
   C     64.96000000    29.64000000    35.05000000
   C     64.28000000    28.90000000    36.21000000
   C     63.82000000    27.64000000    35.50000000
   H     63.20000000    30.13000000    33.85000000
   H     65.88000000    29.22000000    34.64000000
   H     65.15000000    30.68000000    35.29000000
   H     65.00000000    28.61000000    36.97000000
   H     63.46000000    29.50000000    36.60000000
   H     64.58000000    26.92000000    35.19000000
   H     63.09000000    27.08000000    36.09000000
   N     65.24000000    30.25000000    32.17000000
   C     65.88000000    30.40000000    30.88000000
   C     65.52000000    31.68000000    30.13000000
   O     66.38000000    32.22000000    29.43000000
   C     67.40000000    30.28000000    30.98000000
   C     67.96000000    29.00000000    31.59000000
   C     68.07000000    27.90000000    30.53000000
   O     68.81000000    28.18000000    29.57000000
   O     67.43000000    26.84000000    30.62000000
   H     65.51000000    30.94000000    32.86000000
   H     65.56000000    29.54000000    30.29000000
   H     67.80000000    31.09000000    31.59000000
   H     67.89000000    30.46000000    30.02000000
   H     67.35000000    28.66000000    32.43000000
   H     68.93000000    29.17000000    32.04000000
   N     64.35000000    32.30000000    30.21000000
   C     63.14000000    32.20000000    31.01000000
   H     62.31700000    31.85900000    30.38200000
   H     63.29700000    31.48800000    31.82000000
   H     62.89700000    33.17800000    31.42700000
   H     64.24000000    32.89000000    29.40000000
  Ca     55.12000000    33.92000000    20.80000000
   O     54.30000000    32.64000000    18.65000000
   H     53.78000000    33.19000000    18.07000000
   H     54.88000000    32.15000000    18.07000000
   O     56.82000000    34.74000000    18.92000000
   H     56.75000000    34.15000000    18.16000000
   H     57.42000000    35.43000000    18.63000000
   O     56.63000000    31.41000000    20.30000000
   H     57.16000000    31.40000000    19.50000000
   H     57.23000000    31.11000000    20.98000000
   O     57.44000000    34.42000000    22.25000000
   H     58.35000000    34.48000000    22.55000000
   H     56.96000000    34.08000000    23.00000000

Ca 1.00



