%chk=loop2.holoCaM.run84.water1.chk
%nprocshared=20
%mem=10GB
%nosave
#b3lyp/svp scf=(tight,noincore,xqc) Test 
#IOP(5/87=12) Density=Current Pop=(MK,readradii) iop(6/33=2) iop(6/42=6)

loop2.holoCaM.run84.water1 

   -2  1 
   C     36.45000000    72.86000000    34.31000000
   C     35.09000000    72.77000000    34.99000000
   O     34.71000000    71.64000000    35.29000000
   H     37.20100000    72.37500000    34.93400000
   H     36.40600000    72.36100000    33.34200000
   H     36.71700000    73.90700000    34.16800000
   N     34.39000000    73.86000000    35.33000000
   C     33.19000000    73.89000000    36.13000000
   C     32.09000000    73.04000000    35.50000000
   O     31.73000000    73.37000000    34.38000000
   C     32.78000000    75.35000000    36.27000000
   C     31.50000000    75.47000000    37.09000000
   O     30.97000000    74.47000000    37.61000000
   O     31.06000000    76.63000000    37.24000000
   H     34.68000000    74.75000000    34.95000000
   H     33.44000000    73.52000000    37.12000000
   H     32.74000000    75.85000000    35.30000000
   H     33.58000000    75.90000000    36.77000000
   N     31.55000000    71.93000000    36.01000000
   C     30.94000000    70.90000000    35.20000000
   C     29.41000000    70.92000000    35.23000000
   O     28.81000000    70.55000000    34.23000000
   C     31.35000000    69.53000000    35.72000000
   H     31.91000000    71.67000000    36.92000000
   H     31.25000000    70.96000000    34.16000000
   H     32.36000000    69.54000000    36.14000000
   H     30.73000000    69.22000000    36.57000000
   H     31.24000000    68.78000000    34.93000000
   N     28.82000000    71.42000000    36.32000000
   C     27.47000000    71.94000000    36.28000000
   C     27.26000000    73.29000000    35.62000000
   O     26.15000000    73.79000000    35.44000000
   C     26.88000000    71.91000000    37.69000000
   C     27.84000000    72.38000000    38.78000000
   O     27.28000000    72.92000000    39.76000000
   O     29.07000000    72.15000000    38.80000000
   H     29.45000000    71.66000000    37.07000000
   H     26.82000000    71.23000000    35.76000000
   H     26.52000000    70.95000000    38.04000000
   H     26.05000000    72.62000000    37.64000000
   N     28.33000000    74.06000000    35.40000000
   C     28.32000000    75.44000000    34.95000000
   C     27.64000000    76.41000000    35.90000000
   O     26.70000000    77.11000000    35.50000000
   H     29.24000000    73.69000000    35.65000000
   H     27.76000000    75.55000000    34.02000000
   H     29.36000000    75.69000000    34.73000000
   N     28.16000000    76.67000000    37.10000000
   C     27.47000000    77.44000000    38.12000000
   C     28.26000000    78.63000000    38.64000000
   O     27.63000000    79.46000000    39.29000000
   C     27.10000000    76.56000000    39.30000000
   C     28.27000000    76.36000000    40.25000000
   N     28.22000000    77.03000000    41.40000000
   O     29.19000000    75.58000000    39.97000000
   H     28.93000000    76.07000000    37.34000000
   H     26.50000000    77.69000000    37.68000000
   H     26.91000000    75.60000000    38.81000000
   H     26.26000000    76.96000000    39.86000000
   H     27.48000000    77.67000000    41.65000000
   H     28.95000000    76.92000000    42.10000000
   N     29.57000000    78.65000000    38.38000000
   C     30.43000000    79.78000000    38.70000000
   C     31.29000000    79.58000000    39.94000000
   O     31.98000000    80.52000000    40.30000000
   H     30.07000000    77.88000000    37.95000000
   H     29.88000000    80.72000000    38.70000000
   H     31.11000000    79.82000000    37.85000000
   N     31.33000000    78.38000000    40.52000000
   C     32.19000000    77.97000000    41.61000000
   C     32.80000000    76.59000000    41.42000000
   O     32.22000000    75.62000000    40.94000000
   C     31.60000000    78.14000000    43.01000000
   C     30.83000000    79.42000000    43.29000000
   O     30.70000000    77.09000000    43.28000000
   H     30.78000000    77.63000000    40.12000000
   H     33.08000000    78.60000000    41.48000000
   H     32.41000000    78.09000000    43.74000000
   H     30.38000000    77.21000000    44.17000000
   H     29.92000000    79.38000000    42.71000000
   H     30.63000000    79.49000000    44.36000000
   H     31.38000000    80.30000000    42.94000000
   N     34.06000000    76.45000000    41.85000000
   C     34.79000000    75.20000000    41.89000000
   C     34.46000000    74.46000000    43.18000000
   O     34.53000000    75.05000000    44.25000000
   C     36.28000000    75.52000000    41.89000000
   C     36.76000000    76.23000000    40.63000000
   C     37.12000000    74.29000000    42.23000000
   C     36.67000000    75.34000000    39.39000000
   H     34.58000000    77.22000000    42.25000000
   H     34.57000000    74.65000000    40.98000000
   H     36.51000000    76.27000000    42.65000000
   H     37.82000000    76.47000000    40.72000000
   H     36.12000000    77.11000000    40.52000000
   H     37.07000000    73.89000000    43.24000000
   H     36.90000000    73.50000000    41.52000000
   H     38.17000000    74.51000000    42.03000000
   H     36.98000000    75.94000000    38.54000000
   H     37.38000000    74.55000000    39.62000000
   H     35.71000000    74.85000000    39.21000000
   N     34.03000000    73.22000000    42.93000000
   C     33.91000000    72.07000000    43.80000000
   C     35.14000000    71.20000000    43.62000000
   O     35.96000000    71.36000000    42.71000000
   C     32.66000000    71.24000000    43.52000000
   C     31.39000000    71.98000000    43.14000000
   O     30.94000000    71.84000000    41.98000000
   O     30.81000000    72.50000000    44.12000000
   H     33.98000000    73.06000000    41.93000000
   H     33.90000000    72.45000000    44.83000000
   H     32.48000000    70.74000000    44.47000000
   H     32.84000000    70.40000000    42.84000000
   N     35.47000000    70.41000000    44.64000000
   C     36.73000000    69.69000000    44.70000000
   C     37.13000000    68.82000000    43.52000000
   O     38.26000000    68.98000000    43.08000000
   C     36.78000000    68.99000000    46.05000000
   C     38.08000000    68.32000000    46.42000000
   C     39.27000000    69.02000000    46.24000000
   C     38.06000000    67.04000000    47.00000000
   C     40.48000000    68.54000000    46.77000000
   C     39.29000000    66.50000000    47.40000000
   C     40.47000000    67.26000000    47.35000000
   H     34.83000000    70.30000000    45.42000000
   H     37.46000000    70.49000000    44.78000000
   H     35.97000000    68.25000000    46.01000000
   H     36.60000000    69.72000000    46.84000000
   H     39.23000000    70.00000000    45.80000000
   H     37.13000000    66.53000000    47.19000000
   H     41.44000000    69.03000000    46.78000000
   H     39.34000000    65.52000000    47.84000000
   H     41.39000000    66.90000000    47.77000000
   N     36.30000000    67.96000000    42.92000000
   C     36.75000000    67.23000000    41.75000000
   C     36.85000000    68.14000000    40.54000000
   O     37.48000000    67.72000000    39.57000000
   C     35.69000000    66.15000000    41.55000000
   C     34.48000000    66.67000000    42.32000000
   C     35.01000000    67.56000000    43.44000000
   H     37.77000000    66.85000000    41.82000000
   H     35.45000000    66.07000000    40.49000000
   H     36.01000000    65.23000000    42.04000000
   H     33.92000000    67.33000000    41.66000000
   H     33.87000000    65.87000000    42.73000000
   H     34.32000000    68.38000000    43.63000000
   H     35.17000000    66.93000000    44.32000000
   N     36.51000000    69.43000000    40.62000000
   C     36.89000000    70.39000000    39.60000000
   C     38.28000000    70.92000000    39.90000000
   O     39.07000000    71.10000000    38.97000000
   C     35.84000000    71.49000000    39.44000000
   C     34.46000000    70.85000000    39.28000000
   C     33.30000000    71.83000000    39.30000000
   O     33.27000000    72.77000000    40.13000000
   O     32.26000000    71.48000000    38.71000000
   H     36.06000000    69.76000000    41.46000000
   H     37.01000000    69.78000000    38.70000000
   H     36.03000000    72.13000000    38.59000000
   H     35.90000000    72.11000000    40.34000000
   H     34.23000000    70.10000000    40.03000000
   H     34.50000000    70.37000000    38.30000000
   N     38.58000000    71.20000000    41.17000000
   C     39.91000000    71.48000000    41.69000000
   H     40.57400000    71.74100000    40.86600000
   H     39.85800000    72.31200000    42.39200000
   H     40.29500000    70.59700000    42.20000000
   H     37.79000000    71.10000000    41.78000000
  Ca     30.80000000    73.57000000    40.09000000
   O     30.11000000    74.49000000    42.54000000
   H     30.25000000    73.88000000    43.26000000
   H     30.43000000    75.33000000    42.88000000

Ca 1.00



