%chk=loop3.apoCaM-CA-Ng.Init31.run80.water5.chk
%nprocshared=20
%mem=10GB
%nosave
#b3lyp/svp scf=(tight,noincore,xqc) Test 
#IOP(5/87=12) Density=Current Pop=(MK,readradii) iop(6/33=2) iop(6/42=6)

loop3.apoCaM-CA-Ng.Init31.run80.water5 

   0  1 
   C     81.95000000    69.72000000    17.25000000
   C     81.08000000    68.53000000    16.85000000
   O     80.76000000    67.57000000    17.55000000
   H     82.87300000    69.70600000    16.67000000
   H     81.41200000    70.64700000    17.05300000
   H     82.18800000    69.65600000    18.31200000
   N     80.62000000    68.62000000    15.60000000
   C     79.83000000    67.60000000    14.95000000
   C     80.64000000    66.44000000    14.40000000
   O     81.83000000    66.57000000    14.13000000
   C     79.00000000    68.21000000    13.82000000
   C     79.71000000    69.17000000    12.88000000
   O     80.29000000    68.79000000    11.84000000
   O     79.51000000    70.38000000    13.13000000
   H     81.08000000    69.28000000    14.98000000
   H     79.03000000    67.25000000    15.61000000
   H     78.12000000    68.65000000    14.29000000
   H     78.59000000    67.40000000    13.22000000
   N     79.98000000    65.32000000    14.11000000
   C     80.65000000    64.27000000    13.36000000
   C     81.61000000    63.54000000    14.29000000
   O     82.61000000    63.06000000    13.76000000
   C     79.55000000    63.42000000    12.73000000
   C     80.09000000    62.51000000    11.64000000
   C     79.05000000    61.67000000    10.91000000
   C     79.62000000    60.58000000    10.01000000
   N     78.56000000    59.62000000     9.68000000
   H     78.97000000    65.36000000    14.15000000
   H     81.24000000    64.76000000    12.59000000
   H     78.75000000    64.02000000    12.29000000
   H     79.01000000    62.77000000    13.41000000
   H     80.94000000    61.91000000    11.98000000
   H     80.49000000    63.20000000    10.89000000
   H     78.50000000    62.38000000    10.29000000
   H     78.36000000    61.15000000    11.57000000
   H     80.37000000    60.04000000    10.58000000
   H     80.04000000    60.99000000     9.09000000
   H     78.09000000    59.23000000    10.49000000
   H     77.87000000    60.13000000     9.15000000
   H     78.88000000    58.94000000     9.00000000
   N     81.30000000    63.39000000    15.58000000
   C     82.07000000    62.81000000    16.66000000
   C     81.98000000    61.29000000    16.67000000
   O     81.35000000    60.67000000    17.52000000
   C     81.83000000    63.60000000    17.95000000
   C     80.35000000    63.64000000    18.31000000
   O     80.07000000    64.12000000    19.43000000
   O     79.48000000    63.10000000    17.59000000
   H     80.37000000    63.69000000    15.85000000
   H     83.14000000    62.91000000    16.51000000
   H     82.05000000    64.65000000    17.72000000
   H     82.40000000    63.27000000    18.81000000
   N     82.51000000    60.77000000    15.56000000
   C     82.61000000    59.41000000    15.06000000
   C     81.44000000    58.98000000    14.18000000
   O     80.46000000    59.68000000    13.96000000
   H     82.84000000    61.44000000    14.88000000
   H     82.70000000    58.74000000    15.91000000
   H     83.48000000    59.34000000    14.41000000
   N     81.41000000    57.80000000    13.57000000
   C     82.40000000    56.74000000    13.60000000
   C     82.36000000    55.85000000    14.84000000
   O     81.30000000    55.55000000    15.39000000
   C     82.44000000    56.07000000    12.24000000
   C     82.57000000    57.06000000    11.09000000
   N     81.42000000    57.45000000    10.53000000
   O     83.68000000    57.47000000    10.76000000
   H     80.69000000    57.59000000    12.89000000
   H     83.42000000    57.10000000    13.50000000
   H     81.51000000    55.51000000    12.20000000
   H     83.16000000    55.25000000    12.25000000
   H     80.64000000    56.85000000    10.77000000
   H     81.49000000    58.00000000     9.69000000
   N     83.41000000    55.24000000    15.39000000
   C     84.82000000    55.43000000    15.10000000
   C     85.45000000    56.42000000    16.06000000
   O     85.18000000    57.62000000    16.06000000
   H     83.19000000    54.64000000    16.18000000
   H     84.88000000    55.82000000    14.08000000
   H     85.29000000    54.45000000    15.18000000
   N     86.32000000    55.91000000    16.93000000
   C     86.84000000    56.49000000    18.15000000
   C     88.35000000    56.33000000    18.11000000
   O     88.93000000    55.37000000    18.62000000
   C     86.10000000    55.92000000    19.36000000
   C     84.60000000    55.97000000    19.24000000
   C     83.81000000    57.13000000    19.25000000
   C     83.97000000    54.73000000    19.08000000
   C     82.44000000    57.15000000    18.96000000
   C     82.58000000    54.74000000    18.89000000
   C     81.81000000    55.91000000    18.74000000
   O     80.51000000    55.80000000    18.32000000
   H     86.51000000    54.93000000    16.75000000
   H     86.71000000    57.58000000    18.17000000
   H     86.42000000    56.55000000    20.19000000
   H     86.51000000    54.94000000    19.59000000
   H     84.35000000    58.04000000    19.42000000
   H     84.55000000    53.82000000    19.18000000
   H     81.96000000    58.11000000    18.89000000
   H     82.09000000    53.79000000    18.79000000
   H     80.27000000    55.02000000    17.81000000
   N     89.08000000    57.21000000    17.42000000
   C     90.42000000    56.89000000    16.98000000
   C     91.42000000    57.98000000    17.32000000
   O     92.61000000    57.66000000    17.39000000
   C     90.48000000    56.56000000    15.49000000
   C     89.87000000    55.19000000    15.22000000
   C     89.80000000    57.68000000    14.70000000
   C     90.01000000    54.79000000    13.76000000
   H     88.50000000    57.94000000    17.01000000
   H     90.84000000    56.02000000    17.49000000
   H     91.52000000    56.43000000    15.19000000
   H     88.87000000    55.02000000    15.63000000
   H     90.52000000    54.42000000    15.63000000
   H     88.75000000    57.82000000    14.96000000
   H     90.33000000    58.61000000    14.91000000
   H     89.99000000    57.58000000    13.63000000
   H     89.65000000    53.77000000    13.64000000
   H     89.46000000    55.49000000    13.13000000
   H     91.07000000    54.61000000    13.57000000
   N     91.07000000    59.27000000    17.42000000
   C     92.04000000    60.34000000    17.55000000
   C     91.70000000    61.46000000    16.58000000
   O     92.57000000    62.30000000    16.36000000
   C     91.91000000    60.79000000    19.00000000
   O     90.82000000    61.62000000    19.33000000
   H     90.09000000    59.40000000    17.22000000
   H     93.11000000    60.13000000    17.49000000
   H     92.78000000    61.37000000    19.29000000
   H     91.90000000    59.93000000    19.67000000
   H     90.04000000    61.14000000    19.04000000
   N     90.47000000    61.44000000    16.06000000
   C     89.89000000    62.44000000    15.20000000
   C     89.27000000    63.49000000    16.11000000
   O     88.17000000    64.02000000    15.93000000
   C     88.98000000    61.75000000    14.18000000
   H     89.77000000    60.89000000    16.53000000
   H     90.68000000    63.01000000    14.70000000
   H     88.93000000    62.45000000    13.35000000
   H     89.43000000    60.86000000    13.75000000
   H     87.98000000    61.48000000    14.52000000
   N     89.97000000    63.93000000    17.16000000
   C     89.49000000    64.91000000    18.11000000
   C     88.27000000    64.55000000    18.94000000
   O     87.74000000    65.41000000    19.64000000
   C     89.54000000    66.25000000    17.38000000
   H     90.95000000    63.70000000    17.19000000
   H     90.30000000    64.93000000    18.84000000
   H     88.79000000    66.40000000    16.61000000
   H     89.43000000    66.98000000    18.18000000
   H     90.51000000    66.52000000    16.95000000
   N     87.79000000    63.30000000    18.91000000
   C     86.57000000    62.85000000    19.54000000
   C     86.71000000    62.28000000    20.94000000
   O     85.80000000    62.35000000    21.78000000
   C     85.88000000    61.84000000    18.62000000
   C     86.40000000    60.41000000    18.48000000
   C     87.80000000    60.33000000    17.87000000
   O     88.76000000    60.51000000    18.64000000
   O     88.04000000    59.97000000    16.70000000
   H     88.30000000    62.66000000    18.31000000
   H     85.83000000    63.65000000    19.59000000
   H     85.75000000    62.26000000    17.63000000
   H     84.88000000    61.80000000    19.04000000
   H     85.68000000    59.81000000    17.92000000
   H     86.46000000    59.98000000    19.47000000
   N     87.78000000    61.55000000    21.25000000
   C     88.09000000    61.18000000    22.62000000
   H     88.90400000    61.80400000    22.98900000
   H     87.20900000    61.32600000    23.24500000
   H     88.39100000    60.13300000    22.65500000
   H     88.47000000    61.46000000    20.52000000
  Ca     77.73000000    62.84000000    19.70000000
   O     76.93000000    64.40000000    17.62000000
   H     77.05000000    64.86000000    16.79000000
   H     76.10000000    63.94000000    17.53000000
   O     76.49000000    61.20000000    21.47000000
   H     75.78000000    60.57000000    21.53000000
   H     76.90000000    61.19000000    22.34000000
   O     76.00000000    61.47000000    18.06000000
   H     75.29000000    60.99000000    18.48000000
   H     75.64000000    61.76000000    17.23000000
   O     79.00000000    62.13000000    22.02000000
   H     79.50000000    62.84000000    22.43000000
   H     78.96000000    61.45000000    22.69000000
   O     79.05000000    60.65000000    19.13000000
   H     79.74000000    60.91000000    18.52000000
   H     78.96000000    59.71000000    19.00000000

Ca 1.00



