%chk=loop4.apoCaM-CA-Ng.Init295.run20.water4.chk
%nprocshared=20
%mem=10GB
%nosave
#b3lyp/svp scf=(tight,noincore,xqc) Test 
#IOP(5/87=12) Density=Current Pop=(MK,readradii) iop(6/33=2) iop(6/42=6)

loop4.apoCaM-CA-Ng.Init295.run20.water4 

   -3  1 
   C     91.43000000    31.84000000    62.89000000
   C     92.36000000    33.05000000    62.94000000
   O     92.15000000    34.02000000    62.21000000
   H     90.50400000    32.11500000    62.38400000
   H     91.91500000    31.03000000    62.34500000
   H     91.20500000    31.51200000    63.90500000
   N     93.42000000    33.03000000    63.75000000
   C     94.29000000    34.14000000    64.07000000
   C     93.76000000    35.48000000    64.58000000
   O     94.52000000    36.44000000    64.47000000
   C     95.35000000    34.24000000    62.97000000
   C     96.10000000    32.93000000    62.82000000
   O     96.42000000    32.13000000    63.73000000
   O     96.52000000    32.66000000    61.67000000
   H     93.76000000    32.21000000    64.23000000
   H     94.80000000    33.83000000    64.98000000
   H     96.16000000    34.92000000    63.24000000
   H     94.88000000    34.44000000    62.01000000
   N     92.61000000    35.51000000    65.26000000
   C     91.96000000    36.68000000    65.80000000
   C     91.60000000    36.41000000    67.26000000
   O     90.76000000    35.57000000    67.58000000
   C     90.76000000    37.06000000    64.94000000
   C     91.16000000    37.60000000    63.57000000
   C     89.92000000    38.08000000    65.71000000
   C     90.10000000    37.28000000    62.52000000
   H     92.05000000    34.67000000    65.25000000
   H     92.62000000    37.55000000    65.78000000
   H     90.12000000    36.19000000    64.78000000
   H     92.11000000    37.17000000    63.27000000
   H     91.35000000    38.66000000    63.67000000
   H     90.48000000    38.92000000    66.11000000
   H     89.23000000    38.50000000    64.98000000
   H     89.36000000    37.58000000    66.50000000
   H     90.10000000    36.19000000    62.43000000
   H     89.12000000    37.43000000    62.97000000
   H     90.38000000    37.79000000    61.60000000
   N     92.15000000    37.09000000    68.26000000
   C     93.33000000    37.93000000    68.12000000
   C     94.66000000    37.23000000    67.89000000
   O     95.56000000    37.78000000    67.27000000
   C     93.46000000    38.91000000    69.28000000
   C     92.17000000    39.52000000    69.81000000
   O     91.86000000    40.58000000    69.22000000
   O     91.56000000    39.03000000    70.78000000
   H     91.89000000    36.72000000    69.16000000
   H     93.16000000    38.60000000    67.28000000
   H     94.24000000    39.65000000    69.10000000
   H     93.85000000    38.38000000    70.14000000
   N     94.58000000    35.94000000    68.24000000
   C     95.59000000    34.93000000    68.00000000
   C     96.76000000    34.92000000    68.97000000
   O     96.54000000    34.89000000    70.18000000
   H     93.76000000    35.64000000    68.75000000
   H     96.02000000    35.07000000    67.00000000
   H     95.02000000    34.00000000    68.07000000
   N     97.97000000    34.75000000    68.45000000
   C     99.20000000    34.47000000    69.16000000
   C    100.38000000    35.20000000    68.53000000
   O    101.47000000    34.79000000    68.93000000
   C     99.39000000    32.96000000    69.26000000
   C     99.53000000    32.24000000    67.93000000
   O     99.68000000    32.86000000    66.85000000
   O     99.49000000    30.99000000    67.97000000
   H     98.10000000    34.81000000    67.45000000
   H     99.08000000    34.78000000    70.20000000
   H     98.49000000    32.60000000    69.76000000
   H    100.23000000    32.80000000    69.94000000
   N    100.26000000    36.13000000    67.59000000
   C    101.28000000    36.88000000    66.89000000
   C    102.35000000    36.18000000    66.07000000
   O    103.13000000    36.94000000    65.50000000
   H     99.32000000    36.28000000    67.24000000
   H    101.70000000    37.64000000    67.56000000
   H    100.79000000    37.56000000    66.19000000
   N    102.32000000    34.84000000    66.01000000
   C    103.07000000    33.88000000    65.22000000
   C    102.93000000    34.06000000    63.71000000
   O    103.82000000    34.59000000    63.06000000
   C    104.50000000    33.73000000    65.73000000
   C    105.24000000    32.42000000    65.48000000
   C    106.76000000    32.42000000    65.33000000
   N    107.40000000    31.29000000    65.02000000
   O    107.46000000    33.38000000    65.64000000
   H    101.60000000    34.46000000    66.59000000
   H    102.54000000    32.96000000    65.44000000
   H    104.58000000    34.00000000    66.78000000
   H    105.09000000    34.50000000    65.24000000
   H    104.98000000    32.10000000    64.47000000
   H    104.86000000    31.62000000    66.11000000
   H    106.83000000    30.48000000    64.81000000
   H    108.40000000    31.23000000    64.98000000
   N    101.88000000    33.50000000    63.11000000
   C    101.80000000    33.44000000    61.67000000
   C    102.57000000    32.25000000    61.10000000
   O    102.78000000    31.23000000    61.75000000
   C    100.33000000    33.34000000    61.27000000
   C     99.45000000    34.40000000    61.91000000
   C    100.04000000    33.23000000    59.78000000
   H    101.26000000    32.89000000    63.64000000
   H    102.11000000    34.39000000    61.23000000
   H     99.97000000    32.39000000    61.68000000
   H    100.02000000    35.32000000    61.82000000
   H     98.50000000    34.37000000    61.38000000
   H     99.11000000    34.15000000    62.92000000
   H    100.58000000    32.43000000    59.26000000
   H     98.97000000    33.06000000    59.64000000
   H    100.25000000    34.17000000    59.28000000
   N    103.14000000    32.31000000    59.89000000
   C    103.52000000    31.14000000    59.13000000
   C    102.26000000    30.60000000    58.46000000
   O    101.79000000    31.26000000    57.54000000
   C    104.66000000    31.53000000    58.20000000
   C    105.37000000    30.29000000    57.67000000
   N    106.47000000    30.53000000    56.94000000
   O    105.11000000    29.12000000    57.93000000
   H    102.97000000    33.16000000    59.36000000
   H    103.81000000    30.32000000    59.78000000
   H    105.43000000    32.05000000    58.77000000
   H    104.33000000    32.09000000    57.32000000
   H    106.56000000    31.50000000    56.68000000
   H    107.10000000    29.84000000    56.55000000
   N    101.89000000    29.37000000    58.84000000
   C    100.78000000    28.65000000    58.26000000
   C    100.55000000    27.48000000    59.21000000
   O    101.41000000    26.71000000    59.63000000
   C    101.14000000    28.15000000    56.86000000
   C    100.13000000    27.18000000    56.31000000
   C     98.82000000    27.52000000    55.94000000
   C    100.57000000    25.91000000    55.93000000
   C     97.93000000    26.60000000    55.38000000
   C     99.76000000    24.96000000    55.30000000
   C     98.42000000    25.31000000    55.08000000
   O     97.56000000    24.38000000    54.55000000
   H    102.32000000    29.04000000    59.69000000
   H     99.89000000    29.27000000    58.19000000
   H    102.12000000    27.68000000    56.95000000
   H    101.23000000    28.96000000    56.14000000
   H     98.55000000    28.52000000    56.22000000
   H    101.56000000    25.59000000    56.23000000
   H     96.92000000    26.86000000    55.12000000
   H    100.08000000    23.96000000    55.04000000
   H     98.09000000    23.59000000    54.40000000
   N     99.30000000    27.22000000    59.60000000
   C     98.86000000    26.28000000    60.62000000
   C     98.00000000    25.23000000    59.93000000
   O     98.51000000    24.12000000    59.92000000
   C     98.25000000    27.02000000    61.81000000
   C     99.33000000    27.57000000    62.74000000
   C     98.68000000    28.47000000    63.77000000
   O     98.08000000    27.96000000    64.74000000
   O     98.71000000    29.72000000    63.71000000
   H     98.67000000    27.93000000    59.27000000
   H     99.69000000    25.72000000    61.03000000
   H     97.58000000    26.35000000    62.36000000
   H     97.75000000    27.94000000    61.51000000
   H    100.02000000    28.11000000    62.09000000
   H     99.86000000    26.73000000    63.20000000
   N     96.99000000    25.57000000    59.13000000
   C     96.03000000    26.66000000    59.21000000
   C     95.39000000    27.06000000    57.89000000
   O     95.41000000    26.27000000    56.95000000
   C     95.00000000    26.35000000    60.29000000
   C     94.03000000    25.22000000    59.96000000
   C     94.51000000    23.80000000    60.18000000
   O     94.39000000    22.93000000    59.29000000
   O     94.95000000    23.56000000    61.33000000
   H     96.82000000    24.94000000    58.35000000
   H     96.61000000    27.54000000    59.51000000
   H     94.48000000    27.30000000    60.38000000
   H     95.41000000    26.18000000    61.28000000
   H     93.49000000    25.40000000    59.02000000
   H     93.27000000    25.29000000    60.74000000
   N     94.80000000    28.26000000    57.93000000
   C     93.95000000    28.80000000    56.88000000
   H     93.05900000    29.24100000    57.32600000
   H     94.49600000    29.56500000    56.32700000
   H     93.65700000    27.99900000    56.20100000
   H     94.84000000    28.76000000    58.81000000
  Ca     95.98000000    29.74000000    64.63000000
   O     95.32000000    29.36000000    61.83000000
   H     94.45000000    28.98000000    61.79000000
   H     95.30000000    30.08000000    61.20000000
   O     97.38000000    30.32000000    66.85000000
   H     97.03000000    30.13000000    67.72000000
   H     98.28000000    30.61000000    67.01000000
   O     94.59000000    31.40000000    66.40000000
   H     95.01000000    31.39000000    67.26000000
   H     93.93000000    32.08000000    66.46000000
   O     95.31000000    27.11000000    63.99000000
   H     95.26000000    26.58000000    64.78000000
   H     94.92000000    26.57000000    63.31000000

Ca 1.00



