%chk=loop2.holoCaM-CaMKII.run28.water2.chk
%nprocshared=20
%mem=10GB
%nosave
#b3lyp/svp scf=(tight,noincore,xqc) Test 
#IOP(5/87=12) Density=Current Pop=(MK,readradii) iop(6/33=2) iop(6/42=6)

loop2.holoCaM-CaMKII.run28.water2 

   -2  1 
   C     77.48000000    51.17000000    15.71000000
   C     78.28000000    50.57000000    14.57000000
   O     79.22000000    51.19000000    14.07000000
   H     76.49200000    50.71100000    15.74100000
   H     77.99500000    50.98600000    16.65300000
   H     77.37600000    52.24400000    15.55600000
   N     77.86000000    49.42000000    14.03000000
   C     78.61000000    48.66000000    13.06000000
   C     78.66000000    49.24000000    11.65000000
   O     77.66000000    49.59000000    11.03000000
   C     77.94000000    47.29000000    12.93000000
   C     78.77000000    46.46000000    11.97000000
   O     79.98000000    46.34000000    12.28000000
   O     78.27000000    46.10000000    10.88000000
   H     77.19000000    48.85000000    14.53000000
   H     79.60000000    48.39000000    13.42000000
   H     76.93000000    47.50000000    12.58000000
   H     77.91000000    46.73000000    13.86000000
   N     79.87000000    49.30000000    11.09000000
   C     80.13000000    49.68000000     9.72000000
   C     80.88000000    48.70000000     8.83000000
   O     81.18000000    48.95000000     7.67000000
   C     80.83000000    51.03000000     9.85000000
   H     80.70000000    49.00000000    11.58000000
   H     79.18000000    49.81000000     9.20000000
   H     80.14000000    51.72000000    10.33000000
   H     81.80000000    51.01000000    10.35000000
   H     80.97000000    51.35000000     8.81000000
   N     80.99000000    47.45000000     9.29000000
   C     81.68000000    46.39000000     8.59000000
   C     81.27000000    44.96000000     8.90000000
   O     81.78000000    44.06000000     8.24000000
   C     83.18000000    46.62000000     8.75000000
   C     83.68000000    46.46000000    10.18000000
   O     82.98000000    45.87000000    11.03000000
   O     84.83000000    46.83000000    10.51000000
   H     80.83000000    47.21000000    10.26000000
   H     81.51000000    46.60000000     7.54000000
   H     83.44000000    47.64000000     8.45000000
   H     83.76000000    45.84000000     8.26000000
   N     80.45000000    44.65000000     9.91000000
   C     79.89000000    43.33000000    10.13000000
   C     80.82000000    42.31000000    10.75000000
   O     80.47000000    41.14000000    10.82000000
   H     80.12000000    45.40000000    10.51000000
   H     79.61000000    43.09000000     9.10000000
   H     78.98000000    43.40000000    10.73000000
   N     81.97000000    42.73000000    11.29000000
   C     83.03000000    41.86000000    11.75000000
   C     82.89000000    41.11000000    13.07000000
   O     83.88000000    40.72000000    13.68000000
   C     84.30000000    42.70000000    11.67000000
   C     84.50000000    43.73000000    12.77000000
   N     85.63000000    44.43000000    12.91000000
   O     83.54000000    43.98000000    13.48000000
   H     82.26000000    43.68000000    11.10000000
   H     83.03000000    41.14000000    10.92000000
   H     84.27000000    43.20000000    10.70000000
   H     85.19000000    42.08000000    11.64000000
   H     86.27000000    44.31000000    12.14000000
   H     85.65000000    45.18000000    13.59000000
   N     81.67000000    41.00000000    13.59000000
   C     81.39000000    40.57000000    14.95000000
   C     81.63000000    41.49000000    16.14000000
   O     81.30000000    41.08000000    17.25000000
   H     80.89000000    41.33000000    13.04000000
   H     81.88000000    39.63000000    15.20000000
   H     80.33000000    40.34000000    14.96000000
   N     82.22000000    42.68000000    16.05000000
   C     82.82000000    43.36000000    17.18000000
   C     82.60000000    44.87000000    17.09000000
   O     82.52000000    45.43000000    16.00000000
   C     84.33000000    43.16000000    17.26000000
   C     84.57000000    41.82000000    17.96000000
   O     84.95000000    42.99000000    16.00000000
   H     82.26000000    43.10000000    15.13000000
   H     82.33000000    43.02000000    18.08000000
   H     84.82000000    43.94000000    17.84000000
   H     84.49000000    43.50000000    15.33000000
   H     85.61000000    41.54000000    17.83000000
   H     84.35000000    41.88000000    19.03000000
   H     84.08000000    41.02000000    17.41000000
   N     82.60000000    45.52000000    18.26000000
   C     82.73000000    46.96000000    18.22000000
   C     84.16000000    47.43000000    18.03000000
   O     84.93000000    47.27000000    18.98000000
   C     82.19000000    47.60000000    19.49000000
   C     80.73000000    47.27000000    19.82000000
   C     82.45000000    49.11000000    19.49000000
   C     80.13000000    47.83000000    21.11000000
   H     82.77000000    44.96000000    19.08000000
   H     82.07000000    47.40000000    17.46000000
   H     82.80000000    47.18000000    20.29000000
   H     80.65000000    46.19000000    19.97000000
   H     80.08000000    47.51000000    18.98000000
   H     83.50000000    49.32000000    19.70000000
   H     81.97000000    49.63000000    18.66000000
   H     81.97000000    49.57000000    20.35000000
   H     79.98000000    48.91000000    21.00000000
   H     79.14000000    47.40000000    21.20000000
   H     80.69000000    47.54000000    21.99000000
   N     84.50000000    48.04000000    16.89000000
   C     85.84000000    48.55000000    16.67000000
   C     86.03000000    49.89000000    17.35000000
   O     85.11000000    50.68000000    17.55000000
   C     86.17000000    48.63000000    15.18000000
   C     85.76000000    47.30000000    14.57000000
   O     84.62000000    47.14000000    14.08000000
   O     86.67000000    46.44000000    14.48000000
   H     83.83000000    48.13000000    16.14000000
   H     86.60000000    47.85000000    17.03000000
   H     87.23000000    48.86000000    15.08000000
   H     85.59000000    49.45000000    14.77000000
   N     87.21000000    50.40000000    17.71000000
   C     87.38000000    51.73000000    18.25000000
   C     86.87000000    52.90000000    17.41000000
   O     86.27000000    53.75000000    18.07000000
   C     88.83000000    51.87000000    18.67000000
   C     89.18000000    53.16000000    19.38000000
   C     89.89000000    54.16000000    18.69000000
   C     88.78000000    53.43000000    20.69000000
   C     90.18000000    55.41000000    19.25000000
   C     89.01000000    54.68000000    21.28000000
   C     89.66000000    55.67000000    20.52000000
   H     88.08000000    49.89000000    17.58000000
   H     86.78000000    51.74000000    19.16000000
   H     89.51000000    51.82000000    17.82000000
   H     89.04000000    51.09000000    19.40000000
   H     90.30000000    53.90000000    17.72000000
   H     88.24000000    52.71000000    21.29000000
   H     90.68000000    56.16000000    18.66000000
   H     88.69000000    54.88000000    22.29000000
   H     89.88000000    56.58000000    21.05000000
   N     86.97000000    52.96000000    16.08000000
   C     86.23000000    53.97000000    15.36000000
   C     84.72000000    53.92000000    15.50000000
   O     84.03000000    54.93000000    15.52000000
   C     86.77000000    53.94000000    13.94000000
   C     88.16000000    53.33000000    14.10000000
   C     87.94000000    52.31000000    15.21000000
   H     86.50000000    54.95000000    15.78000000
   H     86.13000000    53.31000000    13.32000000
   H     86.76000000    54.97000000    13.57000000
   H     88.56000000    52.88000000    13.20000000
   H     88.85000000    54.11000000    14.43000000
   H     87.52000000    51.42000000    14.74000000
   H     88.88000000    51.99000000    15.66000000
   N     84.15000000    52.77000000    15.88000000
   C     82.75000000    52.58000000    16.19000000
   C     82.37000000    52.86000000    17.63000000
   O     81.29000000    53.37000000    17.94000000
   C     82.36000000    51.15000000    15.81000000
   C     82.49000000    50.76000000    14.34000000
   C     82.11000000    49.32000000    14.05000000
   O     82.09000000    48.87000000    12.88000000
   O     82.04000000    48.44000000    14.93000000
   H     84.75000000    51.96000000    15.84000000
   H     82.10000000    53.27000000    15.64000000
   H     81.29000000    51.06000000    16.00000000
   H     82.92000000    50.39000000    16.36000000
   H     83.48000000    50.86000000    13.90000000
   H     81.77000000    51.37000000    13.79000000
   N     83.36000000    52.76000000    18.53000000
   C     83.25000000    53.25000000    19.89000000
   H     82.19800000    53.38600000    20.14300000
   H     83.69700000    52.52900000    20.57400000
   H     83.77000000    54.20400000    19.97600000
   H     84.25000000    52.35000000    18.31000000
  Ca     82.29000000    46.32000000    13.57000000
   O     79.92000000    46.69000000    15.38000000
   H     80.26000000    47.56000000    15.60000000
   H     79.01000000    46.71000000    15.67000000
   O     80.34000000    44.29000000    14.16000000
   H     79.62000000    43.67000000    13.99000000
   H     79.96000000    44.96000000    14.72000000

Ca 1.00



