%chk=loop4.holoCaM.run84.water2.chk
%nprocshared=20
%mem=10GB
%nosave
#b3lyp/svp scf=(tight,noincore,xqc) Test 
#IOP(5/87=12) Density=Current Pop=(MK,readradii) iop(6/33=2) iop(6/42=6)

loop4.holoCaM.run84.water2 

   -3  1 
   C     54.26000000    54.69000000    18.80000000
   C     55.55000000    54.79000000    19.60000000
   O     55.88000000    55.84000000    20.15000000
   H     53.51300000    55.35600000    19.23200000
   H     54.44900000    54.97900000    17.76600000
   H     53.89200000    53.66400000    18.82900000
   N     56.29000000    53.68000000    19.74000000
   C     57.65000000    53.66000000    20.24000000
   C     58.65000000    54.28000000    19.28000000
   O     58.94000000    53.83000000    18.17000000
   C     57.87000000    52.25000000    20.77000000
   C     59.21000000    52.07000000    21.47000000
   O     59.55000000    50.92000000    21.83000000
   O     59.93000000    53.06000000    21.71000000
   H     55.91000000    52.79000000    19.44000000
   H     57.59000000    54.34000000    21.09000000
   H     57.82000000    51.58000000    19.91000000
   H     57.07000000    52.03000000    21.47000000
   N     59.21000000    55.43000000    19.67000000
   C     59.91000000    56.33000000    18.79000000
   C     61.40000000    56.03000000    18.87000000
   O     62.10000000    56.24000000    17.88000000
   C     59.63000000    57.81000000    19.03000000
   C     58.15000000    58.15000000    18.91000000
   C     60.37000000    58.78000000    18.11000000
   C     57.69000000    59.57000000    19.22000000
   H     59.06000000    55.80000000    20.60000000
   H     59.66000000    56.13000000    17.75000000
   H     59.92000000    57.92000000    20.08000000
   H     57.53000000    57.56000000    19.59000000
   H     57.87000000    57.94000000    17.88000000
   H     61.39000000    58.48000000    17.86000000
   H     59.86000000    59.04000000    17.18000000
   H     60.50000000    59.70000000    18.66000000
   H     58.17000000    60.15000000    18.43000000
   H     56.61000000    59.58000000    19.09000000
   H     58.02000000    59.98000000    20.18000000
   N     61.86000000    55.45000000    19.98000000
   C     63.27000000    55.12000000    20.09000000
   C     63.48000000    53.62000000    19.95000000
   O     64.54000000    53.08000000    19.63000000
   C     64.00000000    55.73000000    21.28000000
   C     63.22000000    55.71000000    22.59000000
   O     63.43000000    56.71000000    23.31000000
   O     62.46000000    54.75000000    22.84000000
   H     61.27000000    55.42000000    20.80000000
   H     63.85000000    55.44000000    19.22000000
   H     64.15000000    56.80000000    21.09000000
   H     64.99000000    55.32000000    21.43000000
   N     62.34000000    52.92000000    19.98000000
   C     62.12000000    51.51000000    19.75000000
   C     62.64000000    50.62000000    20.87000000
   O     62.91000000    49.44000000    20.65000000
   H     61.55000000    53.47000000    20.28000000
   H     62.54000000    51.17000000    18.80000000
   H     61.06000000    51.33000000    19.57000000
   N     62.73000000    51.15000000    22.09000000
   C     63.45000000    50.53000000    23.19000000
   C     62.63000000    49.40000000    23.79000000
   O     63.17000000    48.62000000    24.58000000
   C     63.79000000    51.63000000    24.19000000
   C     62.58000000    52.21000000    24.92000000
   O     62.77000000    52.99000000    25.87000000
   O     61.41000000    51.88000000    24.62000000
   H     62.54000000    52.14000000    22.13000000
   H     64.42000000    50.08000000    22.93000000
   H     64.35000000    52.43000000    23.72000000
   H     64.52000000    51.17000000    24.87000000
   N     61.40000000    49.18000000    23.33000000
   C     60.45000000    48.15000000    23.68000000
   C     59.11000000    48.58000000    24.25000000
   O     58.20000000    47.76000000    24.26000000
   H     61.01000000    49.82000000    22.65000000
   H     60.87000000    47.69000000    24.57000000
   H     60.34000000    47.41000000    22.89000000
   N     58.97000000    49.82000000    24.74000000
   C     57.78000000    50.31000000    25.40000000
   C     57.54000000    51.75000000    24.96000000
   O     58.47000000    52.44000000    24.56000000
   C     58.13000000    50.29000000    26.89000000
   C     58.14000000    48.89000000    27.50000000
   C     58.19000000    48.98000000    29.01000000
   N     59.36000000    49.28000000    29.58000000
   O     57.12000000    48.87000000    29.61000000
   H     59.76000000    50.42000000    24.58000000
   H     56.89000000    49.71000000    25.26000000
   H     57.33000000    50.87000000    27.35000000
   H     59.05000000    50.84000000    27.09000000
   H     59.04000000    48.38000000    27.15000000
   H     57.35000000    48.26000000    27.10000000
   H     60.17000000    49.20000000    29.00000000
   H     59.37000000    49.28000000    30.59000000
   N     56.38000000    52.30000000    25.33000000
   C     56.00000000    53.68000000    25.14000000
   C     56.02000000    54.39000000    26.49000000
   O     55.72000000    53.77000000    27.50000000
   C     54.59000000    53.83000000    24.58000000
   C     54.63000000    53.54000000    23.08000000
   C     53.41000000    53.12000000    25.24000000
   H     55.77000000    51.73000000    25.90000000
   H     56.80000000    54.11000000    24.53000000
   H     54.34000000    54.90000000    24.59000000
   H     55.37000000    54.20000000    22.64000000
   H     54.87000000    52.50000000    22.85000000
   H     53.66000000    53.83000000    22.68000000
   H     53.31000000    52.07000000    25.00000000
   H     53.45000000    53.23000000    26.33000000
   H     52.47000000    53.59000000    24.96000000
   N     56.32000000    55.69000000    26.59000000
   C     55.90000000    56.62000000    27.61000000
   C     54.70000000    57.41000000    27.10000000
   O     54.19000000    57.04000000    26.05000000
   C     57.05000000    57.46000000    28.17000000
   C     57.57000000    58.57000000    27.27000000
   N     58.04000000    58.34000000    26.04000000
   O     57.42000000    59.74000000    27.61000000
   H     56.80000000    56.14000000    25.83000000
   H     55.57000000    56.02000000    28.47000000
   H     57.96000000    56.88000000    28.28000000
   H     56.84000000    57.76000000    29.20000000
   H     58.28000000    57.41000000    25.71000000
   H     58.48000000    59.14000000    25.61000000
   N     54.33000000    58.43000000    27.88000000
   C     53.13000000    59.23000000    27.76000000
   C     53.28000000    60.04000000    26.47000000
   O     52.40000000    60.19000000    25.63000000
   C     52.84000000    60.02000000    29.04000000
   C     54.05000000    60.48000000    29.82000000
   C     54.57000000    61.77000000    29.72000000
   C     54.63000000    59.59000000    30.73000000
   C     55.84000000    62.04000000    30.23000000
   C     55.89000000    59.87000000    31.28000000
   C     56.53000000    61.09000000    31.02000000
   O     57.79000000    61.28000000    31.52000000
   H     54.95000000    58.80000000    28.59000000
   H     52.42000000    58.44000000    27.51000000
   H     52.28000000    59.30000000    29.63000000
   H     52.24000000    60.87000000    28.71000000
   H     54.13000000    62.47000000    29.01000000
   H     54.08000000    58.72000000    31.04000000
   H     56.31000000    63.02000000    30.23000000
   H     56.27000000    59.13000000    31.97000000
   H     58.20000000    60.46000000    31.79000000
   N     54.44000000    60.66000000    26.26000000
   C     54.77000000    61.33000000    25.02000000
   C     54.80000000    60.50000000    23.74000000
   O     54.64000000    61.07000000    22.67000000
   C     56.11000000    62.02000000    25.21000000
   C     56.58000000    62.88000000    24.04000000
   C     57.96000000    63.48000000    24.25000000
   O     58.81000000    62.88000000    24.93000000
   O     58.21000000    64.64000000    23.85000000
   H     55.15000000    60.66000000    26.98000000
   H     54.13000000    62.21000000    24.96000000
   H     56.82000000    61.24000000    25.47000000
   H     55.99000000    62.78000000    25.98000000
   H     55.85000000    63.65000000    23.82000000
   H     56.68000000    62.31000000    23.11000000
   N     54.96000000    59.18000000    23.86000000
   C     54.65000000    58.20000000    22.84000000
   C     53.24000000    57.61000000    22.76000000
   O     52.77000000    57.27000000    21.68000000
   C     55.76000000    57.19000000    23.10000000
   C     57.22000000    57.58000000    22.85000000
   C     58.22000000    56.51000000    23.25000000
   O     58.26000000    56.04000000    24.41000000
   O     59.10000000    56.16000000    22.44000000
   H     55.18000000    58.79000000    24.77000000
   H     54.79000000    58.63000000    21.85000000
   H     55.52000000    56.45000000    22.34000000
   H     55.67000000    56.76000000    24.10000000
   H     57.40000000    58.54000000    23.32000000
   H     57.34000000    57.74000000    21.78000000
   N     52.51000000    57.55000000    23.87000000
   C     51.10000000    57.22000000    23.96000000
   H     50.53200000    57.87100000    23.29500000
   H     50.95000000    56.18100000    23.66600000
   H     50.75800000    57.36100000    24.98500000
   H     52.95000000    58.00000000    24.66000000
  Ca     60.37000000    54.19000000    24.05000000
   O     60.29000000    54.27000000    26.80000000
   H     60.70000000    55.01000000    27.24000000
   H     60.41000000    53.53000000    27.40000000
   O     61.22000000    56.76000000    24.91000000
   H     61.83000000    57.06000000    24.24000000
   H     61.08000000    57.52000000    25.47000000

Ca 1.00



