%chk=loop4.apoCaM-CA-Ng.Init31.run96.water4.chk
%nprocshared=20
%mem=10GB
%nosave
#b3lyp/svp scf=(tight,noincore,xqc) Test 
#IOP(5/87=12) Density=Current Pop=(MK,readradii) iop(6/33=2) iop(6/42=6)

loop4.apoCaM-CA-Ng.Init31.run96.water4 

   -3  1 
   C     64.49000000    50.63000000    42.87000000
   C     65.37000000    51.26000000    41.80000000
   O     64.84000000    52.09000000    41.06000000
   H     63.52000000    50.38000000    42.44100000
   H     64.96500000    49.72300000    43.24400000
   H     64.35400000    51.33500000    43.69000000
   N     66.66000000    51.03000000    41.58000000
   C     67.68000000    50.27000000    42.28000000
   C     68.02000000    50.83000000    43.65000000
   O     68.22000000    50.06000000    44.59000000
   C     68.94000000    50.06000000    41.43000000
   C     69.90000000    49.04000000    42.02000000
   O     70.96000000    49.49000000    42.50000000
   O     69.59000000    47.84000000    42.16000000
   H     67.01000000    51.61000000    40.83000000
   H     67.20000000    49.30000000    42.41000000
   H     69.46000000    51.01000000    41.34000000
   H     68.60000000    49.68000000    40.47000000
   N     67.97000000    52.15000000    43.86000000
   C     67.89000000    52.77000000    45.17000000
   C     69.20000000    53.50000000    45.47000000
   O     69.64000000    53.57000000    46.61000000
   C     66.65000000    53.64000000    45.34000000
   C     66.75000000    54.27000000    46.73000000
   C     66.51000000    54.59000000    44.15000000
   C     65.46000000    54.72000000    47.40000000
   H     67.85000000    52.80000000    43.09000000
   H     67.88000000    51.95000000    45.88000000
   H     65.79000000    52.99000000    45.46000000
   H     67.33000000    55.19000000    46.70000000
   H     67.21000000    53.51000000    47.36000000
   H     66.04000000    55.51000000    44.50000000
   H     67.46000000    54.95000000    43.74000000
   H     65.94000000    54.13000000    43.35000000
   H     64.82000000    55.16000000    46.64000000
   H     64.83000000    53.91000000    47.76000000
   H     65.76000000    55.38000000    48.22000000
   N     69.87000000    54.02000000    44.44000000
   C     71.21000000    54.55000000    44.64000000
   C     72.15000000    53.50000000    45.22000000
   O     72.18000000    52.34000000    44.83000000
   C     71.83000000    54.99000000    43.32000000
   C     70.97000000    55.94000000    42.50000000
   O     70.99000000    57.15000000    42.82000000
   O     70.12000000    55.57000000    41.66000000
   H     69.52000000    53.88000000    43.50000000
   H     71.11000000    55.37000000    45.35000000
   H     71.86000000    54.11000000    42.68000000
   H     72.83000000    55.41000000    43.42000000
   N     73.07000000    53.92000000    46.10000000
   C     74.07000000    53.10000000    46.75000000
   C     75.23000000    52.78000000    45.82000000
   O     75.32000000    53.28000000    44.70000000
   H     72.91000000    54.88000000    46.37000000
   H     73.62000000    52.12000000    46.95000000
   H     74.48000000    53.54000000    47.66000000
   N     76.10000000    51.88000000    46.30000000
   C     77.26000000    51.44000000    45.56000000
   C     78.33000000    52.50000000    45.37000000
   O     78.53000000    53.35000000    46.22000000
   C     77.78000000    50.17000000    46.24000000
   C     78.54000000    50.49000000    47.52000000
   O     79.79000000    50.45000000    47.49000000
   O     77.89000000    50.80000000    48.54000000
   H     75.99000000    51.73000000    47.29000000
   H     77.05000000    51.04000000    44.57000000
   H     78.54000000    49.61000000    45.70000000
   H     76.98000000    49.48000000    46.50000000
   N     79.11000000    52.49000000    44.28000000
   C     79.16000000    51.65000000    43.10000000
   C     80.05000000    50.43000000    43.27000000
   O     80.93000000    50.29000000    44.12000000
   H     79.61000000    53.37000000    44.31000000
   H     79.59000000    52.26000000    42.31000000
   H     78.16000000    51.32000000    42.82000000
   N     79.73000000    49.32000000    42.60000000
   C     78.92000000    49.21000000    41.41000000
   C     77.54000000    48.67000000    41.78000000
   O     77.22000000    48.36000000    42.92000000
   C     79.66000000    48.43000000    40.33000000
   C     80.98000000    49.07000000    39.90000000
   C     81.68000000    48.19000000    38.88000000
   N     82.97000000    47.86000000    39.00000000
   O     81.07000000    47.73000000    37.91000000
   H     80.23000000    48.49000000    42.91000000
   H     78.78000000    50.18000000    40.95000000
   H     79.01000000    48.38000000    39.46000000
   H     79.89000000    47.45000000    40.74000000
   H     81.62000000    48.95000000    40.77000000
   H     81.00000000    50.11000000    39.55000000
   H     83.51000000    48.23000000    39.77000000
   H     83.40000000    47.29000000    38.29000000
   N     76.68000000    48.69000000    40.75000000
   C     75.36000000    48.10000000    40.66000000
   C     74.65000000    48.68000000    39.44000000
   O     75.27000000    49.13000000    38.48000000
   C     75.47000000    46.58000000    40.57000000
   C     75.48000000    45.87000000    41.93000000
   C     76.53000000    46.13000000    39.57000000
   H     77.03000000    49.01000000    39.86000000
   H     74.80000000    48.30000000    41.57000000
   H     74.53000000    46.25000000    40.13000000
   H     76.05000000    44.95000000    41.98000000
   H     75.81000000    46.50000000    42.76000000
   H     74.44000000    45.61000000    42.11000000
   H     77.57000000    46.13000000    39.90000000
   H     76.38000000    45.07000000    39.39000000
   H     76.28000000    46.63000000    38.63000000
   N     73.32000000    48.75000000    39.45000000
   C     72.65000000    49.34000000    38.31000000
   C     72.71000000    48.44000000    37.08000000
   O     72.75000000    48.99000000    35.98000000
   C     71.25000000    49.78000000    38.72000000
   C     70.41000000    50.32000000    37.56000000
   N     70.82000000    51.44000000    36.97000000
   O     69.38000000    49.76000000    37.21000000
   H     72.68000000    48.48000000    40.19000000
   H     73.15000000    50.26000000    38.02000000
   H     71.25000000    50.55000000    39.49000000
   H     70.77000000    48.87000000    39.05000000
   H     71.65000000    51.95000000    37.25000000
   H     70.31000000    51.65000000    36.12000000
   N     72.78000000    47.11000000    37.22000000
   C     73.10000000    46.19000000    36.15000000
   C     72.45000000    44.82000000    36.28000000
   O     72.69000000    44.07000000    37.22000000
   C     74.62000000    46.00000000    36.13000000
   C     75.02000000    45.03000000    35.05000000
   C     75.10000000    45.35000000    33.69000000
   C     75.35000000    43.72000000    35.44000000
   C     75.53000000    44.43000000    32.73000000
   C     75.76000000    42.77000000    34.51000000
   C     75.83000000    43.12000000    33.14000000
   O     76.35000000    42.28000000    32.21000000
   H     72.70000000    46.77000000    38.17000000
   H     72.70000000    46.63000000    35.23000000
   H     74.89000000    45.51000000    37.07000000
   H     75.03000000    46.99000000    35.93000000
   H     74.87000000    46.37000000    33.40000000
   H     75.29000000    43.60000000    36.51000000
   H     75.58000000    44.70000000    31.68000000
   H     76.06000000    41.79000000    34.86000000
   H     76.36000000    42.74000000    31.37000000
   N     71.72000000    44.51000000    35.21000000
   C     71.02000000    43.25000000    35.05000000
   C     69.59000000    43.28000000    35.57000000
   O     69.12000000    42.17000000    35.81000000
   C     71.01000000    42.84000000    33.58000000
   C     72.38000000    42.63000000    32.93000000
   C     72.28000000    41.60000000    31.82000000
   O     72.41000000    40.42000000    32.20000000
   O     72.06000000    41.97000000    30.64000000
   H     71.55000000    45.21000000    34.51000000
   H     71.62000000    42.52000000    35.59000000
   H     70.47000000    43.60000000    33.02000000
   H     70.42000000    41.94000000    33.41000000
   H     73.15000000    42.40000000    33.67000000
   H     72.73000000    43.57000000    32.49000000
   N     69.05000000    44.48000000    35.79000000
   C     67.80000000    44.68000000    36.50000000
   C     66.86000000    45.54000000    35.68000000
   O     67.35000000    46.52000000    35.12000000
   C     68.19000000    45.31000000    37.84000000
   C     68.75000000    44.28000000    38.81000000
   C     68.66000000    44.76000000    40.25000000
   O     69.69000000    45.11000000    40.86000000
   O     67.56000000    44.91000000    40.84000000
   H     69.53000000    45.26000000    35.38000000
   H     67.29000000    43.72000000    36.55000000
   H     67.32000000    45.83000000    38.23000000
   H     69.02000000    46.00000000    37.69000000
   H     69.72000000    43.91000000    38.48000000
   H     68.09000000    43.43000000    38.61000000
   N     65.56000000    45.22000000    35.70000000
   C     64.54000000    45.94000000    34.97000000
   H     63.68200000    46.11200000    35.62000000
   H     64.93900000    46.89800000    34.63600000
   H     64.22900000    45.35400000    34.10500000
   H     65.25000000    44.44000000    36.26000000
  Ca     68.55000000    45.49000000    43.12000000
   O     70.88000000    45.28000000    44.39000000
   H     70.70000000    45.66000000    45.25000000
   H     71.52000000    45.88000000    43.99000000
   O     68.13000000    44.22000000    45.70000000
   H     67.27000000    44.57000000    45.94000000
   H     68.53000000    43.96000000    46.54000000
   O     68.82000000    42.67000000    42.94000000
   H     68.75000000    42.22000000    42.09000000
   H     68.64000000    41.99000000    43.58000000
   O     69.04000000    47.46000000    44.86000000
   H     69.07000000    47.43000000    45.81000000
   H     69.19000000    48.38000000    44.65000000

Ca 1.00



