%chk=loop1.apoCaM-CA-Ng.Init293.run91.water5.chk
%nprocshared=20
%mem=10GB
%nosave
#b3lyp/svp scf=(tight,noincore,xqc) Test 
#IOP(5/87=12) Density=Current Pop=(MK,readradii) iop(6/33=2) iop(6/42=6)

loop1.apoCaM-CA-Ng.Init293.run91.water5 

   0  1 
   C     79.06000000   108.96000000    10.20000000
   C     79.67000000   110.36000000    10.24000000
   O     80.31000000   110.73000000     9.26000000
   H     78.10000000   108.99700000     9.68400000
   H     79.73200000   108.28500000     9.66900000
   H     78.91100000   108.59900000    11.21800000
   N     79.52000000   111.11000000    11.34000000
   C     79.99000000   112.48000000    11.37000000
   C     81.40000000   112.57000000    11.92000000
   O     81.92000000   113.68000000    12.06000000
   C     79.09000000   113.29000000    12.30000000
   C     78.95000000   112.69000000    13.69000000
   O     79.54000000   113.25000000    14.64000000
   O     78.44000000   111.56000000    13.80000000
   H     79.17000000   110.68000000    12.18000000
   H     79.90000000   112.87000000    10.35000000
   H     78.08000000   113.32000000    11.88000000
   H     79.44000000   114.32000000    12.34000000
   N     82.05000000   111.47000000    12.31000000
   C     83.37000000   111.39000000    12.89000000
   C     84.42000000   111.45000000    11.79000000
   O     84.35000000   110.79000000    10.75000000
   C     83.47000000   110.19000000    13.82000000
   C     82.41000000   110.01000000    14.91000000
   C     82.46000000   111.27000000    15.76000000
   C     81.50000000   111.17000000    16.94000000
   N     80.09000000   111.28000000    16.55000000
   H     81.58000000   110.62000000    12.01000000
   H     83.47000000   112.31000000    13.47000000
   H     84.41000000   110.24000000    14.36000000
   H     83.44000000   109.30000000    13.18000000
   H     82.64000000   109.08000000    15.42000000
   H     81.45000000   110.01000000    14.39000000
   H     82.21000000   112.13000000    15.13000000
   H     83.41000000   111.36000000    16.29000000
   H     81.69000000   112.01000000    17.62000000
   H     81.64000000   110.18000000    17.37000000
   H     79.81000000   110.75000000    15.74000000
   H     79.58000000   110.95000000    17.36000000
   H     80.00000000   112.25000000    16.29000000
   N     85.52000000   112.21000000    11.81000000
   C     85.87000000   113.35000000    12.64000000
   C     86.63000000   114.37000000    11.82000000
   O     87.67000000   114.94000000    12.15000000
   C     86.48000000   112.97000000    13.99000000
   C     87.48000000   111.84000000    13.81000000
   O     88.14000000   111.72000000    12.75000000
   O     87.64000000   111.00000000    14.72000000
   H     86.10000000   112.12000000    10.99000000
   H     84.96000000   113.89000000    12.90000000
   H     85.71000000   112.53000000    14.63000000
   H     86.91000000   113.85000000    14.48000000
   N     86.19000000   114.78000000    10.62000000
   C     84.92000000   114.53000000     9.97000000
   C     84.63000000   115.26000000     8.66000000
   O     85.01000000   116.42000000     8.49000000
   H     86.90000000   115.26000000    10.09000000
   H     84.04000000   114.73000000    10.58000000
   H     85.09000000   113.49000000     9.68000000
   N     84.03000000   114.59000000     7.68000000
   C     83.05000000   113.53000000     7.78000000
   C     81.67000000   113.94000000     7.30000000
   O     81.56000000   114.86000000     6.49000000
   C     83.43000000   112.30000000     6.96000000
   C     84.93000000   112.06000000     7.08000000
   O     85.43000000   111.51000000     8.08000000
   O     85.72000000   112.49000000     6.21000000
   H     84.02000000   115.10000000     6.80000000
   H     83.04000000   113.20000000     8.82000000
   H     83.08000000   112.45000000     5.94000000
   H     82.79000000   111.53000000     7.40000000
   N     80.69000000   113.17000000     7.78000000
   C     79.28000000   113.16000000     7.45000000
   C     78.94000000   112.36000000     6.20000000
   O     77.80000000   112.42000000     5.73000000
   H     80.95000000   112.33000000     8.28000000
   H     78.94000000   114.19000000     7.34000000
   H     78.67000000   112.89000000     8.31000000
   N     79.89000000   111.58000000     5.68000000
   C     79.69000000   110.59000000     4.64000000
   C     80.43000000   109.30000000     5.01000000
   O     81.35000000   109.28000000     5.82000000
   C     80.11000000   111.05000000     3.25000000
   C     81.60000000   111.36000000     3.18000000
   O     79.36000000   112.15000000     2.78000000
   H     80.79000000   111.71000000     6.10000000
   H     78.61000000   110.45000000     4.63000000
   H     79.88000000   110.16000000     2.67000000
   H     79.55000000   112.41000000     1.87000000
   H     81.87000000   112.02000000     2.35000000
   H     81.83000000   111.91000000     4.09000000
   H     82.13000000   110.41000000     3.14000000
   N     80.06000000   108.15000000     4.44000000
   C     80.61000000   106.87000000     4.84000000
   C     81.16000000   106.17000000     3.61000000
   O     80.45000000   105.94000000     2.63000000
   C     79.67000000   106.03000000     5.70000000
   C     80.10000000   104.58000000     5.90000000
   C     78.23000000   106.03000000     5.17000000
   C     81.37000000   104.49000000     6.74000000
   H     79.18000000   108.16000000     3.96000000
   H     81.43000000   107.08000000     5.52000000
   H     79.67000000   106.58000000     6.64000000
   H     80.24000000   104.04000000     4.96000000
   H     79.25000000   104.06000000     6.33000000
   H     77.89000000   107.06000000     5.06000000
   H     78.07000000   105.47000000     4.25000000
   H     77.58000000   105.65000000     5.95000000
   H     81.36000000   103.52000000     7.23000000
   H     82.21000000   104.55000000     6.05000000
   H     81.44000000   105.34000000     7.42000000
   N     82.44000000   105.81000000     3.68000000
   C     83.13000000   105.23000000     2.54000000
   C     84.15000000   104.14000000     2.78000000
   O     84.52000000   103.45000000     1.83000000
   C     83.72000000   106.24000000     1.55000000
   C     84.53000000   107.35000000     2.20000000
   O     82.70000000   106.85000000     0.80000000
   H     82.96000000   106.04000000     4.51000000
   H     82.35000000   104.74000000     1.95000000
   H     84.29000000   105.75000000     0.76000000
   H     83.20000000   107.07000000     0.01000000
   H     85.41000000   106.86000000     2.62000000
   H     84.98000000   108.02000000     1.46000000
   H     84.07000000   108.00000000     2.94000000
   N     84.37000000   103.76000000     4.04000000
   C     85.25000000   102.73000000     4.53000000
   C     86.69000000   103.01000000     4.11000000
   O     86.99000000   103.89000000     3.31000000
   C     84.75000000   101.31000000     4.26000000
   C     83.41000000   101.04000000     4.94000000
   O     85.60000000   100.42000000     4.93000000
   H     84.21000000   104.50000000     4.72000000
   H     85.13000000   102.92000000     5.59000000
   H     84.62000000   100.97000000     3.23000000
   H     85.26000000    99.52000000     4.91000000
   H     83.49000000   100.74000000     5.99000000
   H     82.75000000   101.89000000     4.77000000
   H     82.91000000   100.16000000     4.54000000
   N     87.64000000   102.17000000     4.54000000
   C     89.04000000   102.20000000     4.14000000
   C     90.00000000   103.00000000     5.00000000
   O     91.12000000   103.23000000     4.56000000
   C     89.71000000   100.86000000     3.82000000
   C     88.83000000    99.99000000     2.93000000
   C     88.63000000   100.62000000     1.56000000
   C     87.52000000    99.88000000     0.81000000
   N     87.56000000   100.08000000    -0.65000000
   H     87.35000000   101.34000000     5.03000000
   H     89.07000000   102.73000000     3.19000000
   H     89.82000000   100.36000000     4.79000000
   H     90.72000000   101.00000000     3.46000000
   H     87.80000000    99.85000000     3.26000000
   H     89.25000000    98.98000000     2.86000000
   H     89.50000000   100.51000000     0.91000000
   H     88.34000000   101.67000000     1.64000000
   H     86.52000000   100.15000000     1.15000000
   H     87.62000000    98.82000000     1.04000000
   H     86.74000000    99.62000000    -1.02000000
   H     87.71000000   101.04000000    -0.92000000
   H     88.37000000    99.64000000    -1.07000000
   N     89.79000000   103.39000000     6.26000000
   C     88.71000000   103.28000000     7.23000000
   C     88.04000000   101.92000000     7.37000000
   O     86.86000000   101.82000000     7.71000000
   C     87.79000000   104.49000000     7.32000000
   C     86.97000000   104.70000000     8.60000000
   C     86.32000000   106.07000000     8.68000000
   O     87.03000000   107.05000000     9.03000000
   O     85.18000000   106.30000000     8.24000000
   H     90.61000000   103.87000000     6.60000000
   H     89.26000000   103.32000000     8.16000000
   H     87.04000000   104.38000000     6.54000000
   H     88.41000000   105.36000000     7.13000000
   H     87.58000000   104.52000000     9.49000000
   H     86.23000000   103.90000000     8.62000000
   N     88.81000000   100.84000000     7.17000000
   C     88.44000000    99.50000000     7.56000000
   H     87.46100000    99.25900000     7.14600000
   H     89.17800000    98.79400000     7.18000000
   H     88.40000000    99.43500000     8.64700000
   H     89.71000000   100.96000000     6.74000000
  Ca     85.37000000   108.97300000     8.88000000
   O     84.47000000   107.81300000    11.10000000
   H     83.65000000   107.67300000    11.58000000
   H     85.16000000   107.55300000    11.71000000
   O     87.30000000   109.63300000    10.72000000
   H     86.98000000   110.36300000    11.24000000
   H     88.11000000   109.36300000    11.16000000
   O     82.73000000   108.76300000     8.89000000
   H     82.40000000   108.62300000     9.77000000
   H     82.08000000   109.32300000     8.47000000
   O     87.35000000   109.70300000     6.97000000
   H     87.53000000   110.62300000     6.80000000
   H     88.15000000   109.37300000     7.39000000
   O     84.18000000   109.28300000     6.54000000
   H     84.34000000   109.72300000     5.70000000
   H     83.24000000   109.12300000     6.55000000

Ca 1.00



