%chk=loop2.apoCaM-CA-Ng.Init293.run60.water6.chk
%nprocshared=20
%mem=10GB
%nosave
#b3lyp/svp scf=(tight,noincore,xqc) Test 
#IOP(5/87=12) Density=Current Pop=(MK,readradii) iop(6/33=2) iop(6/42=6)

loop2.apoCaM-CA-Ng.Init293.run60.water6 

   -2  1 
   C     76.10000000    87.73000000    62.18000000
   C     77.18000000    86.76000000    62.65000000
   O     77.32000000    86.40000000    63.81000000
   H     75.23200000    87.65100000    62.83400000
   H     76.48700000    88.74900000    62.21200000
   H     75.80900000    87.48300000    61.15900000
   N     78.04000000    86.35000000    61.71000000
   C     79.27000000    85.64000000    61.98000000
   C     80.41000000    86.43000000    62.61000000
   O     81.07000000    86.03000000    63.56000000
   C     79.77000000    85.04000000    60.67000000
   C     80.85000000    83.98000000    60.82000000
   O     80.96000000    83.33000000    61.88000000
   O     81.64000000    83.83000000    59.85000000
   H     77.84000000    86.54000000    60.74000000
   H     79.02000000    84.84000000    62.68000000
   H     80.19000000    85.70000000    59.91000000
   H     78.95000000    84.55000000    60.15000000
   N     80.55000000    87.68000000    62.16000000
   C     81.41000000    88.72000000    62.69000000
   C     81.11000000    89.04000000    64.15000000
   O     81.88000000    89.71000000    64.83000000
   C     82.87000000    88.36000000    62.43000000
   H     79.94000000    87.96000000    61.40000000
   H     81.18000000    89.63000000    62.14000000
   H     83.08000000    88.44000000    61.36000000
   H     83.49000000    89.13000000    62.88000000
   H     83.22000000    87.38000000    62.75000000
   N     79.92000000    88.68000000    64.64000000
   C     79.43000000    88.85000000    65.99000000
   C     80.38000000    88.22000000    66.99000000
   O     80.52000000    88.61000000    68.15000000
   C     79.11000000    90.30000000    66.36000000
   C     78.37000000    91.03000000    65.25000000
   O     77.35000000    90.57000000    64.69000000
   O     78.74000000    92.18000000    64.95000000
   H     79.33000000    88.20000000    63.97000000
   H     78.47000000    88.35000000    66.11000000
   H     80.04000000    90.79000000    66.63000000
   H     78.45000000    90.36000000    67.23000000
   N     81.13000000    87.22000000    66.52000000
   C     82.20000000    86.61000000    67.29000000
   C     81.66000000    85.66000000    68.35000000
   O     80.46000000    85.48000000    68.53000000
   H     80.94000000    86.82000000    65.62000000
   H     82.71000000    87.44000000    67.77000000
   H     83.01000000    86.16000000    66.71000000
   N     82.60000000    85.07000000    69.09000000
   C     82.36000000    84.30000000    70.30000000
   C     81.41000000    83.11000000    70.19000000
   O     80.45000000    82.94000000    70.93000000
   C     82.02000000    85.26000000    71.43000000
   C     83.02000000    86.38000000    71.65000000
   N     84.18000000    86.08000000    72.24000000
   O     82.84000000    87.55000000    71.31000000
   H     83.55000000    85.19000000    68.77000000
   H     83.37000000    83.98000000    70.56000000
   H     81.92000000    84.69000000    72.36000000
   H     81.11000000    85.81000000    71.18000000
   H     84.38000000    85.10000000    72.43000000
   H     84.73000000    86.88000000    72.47000000
   N     81.61000000    82.33000000    69.12000000
   C     80.73000000    81.19000000    68.96000000
   C     79.38000000    81.56000000    68.36000000
   O     78.65000000    80.65000000    67.96000000
   H     82.35000000    82.50000000    68.46000000
   H     80.65000000    80.51000000    69.81000000
   H     81.36000000    80.60000000    68.29000000
   N     78.95000000    82.81000000    68.25000000
   C     77.75000000    83.13000000    67.49000000
   C     76.54000000    83.44000000    68.35000000
   O     76.72000000    84.02000000    69.42000000
   C     78.06000000    84.27000000    66.51000000
   C     79.09000000    83.78000000    65.50000000
   O     76.91000000    84.58000000    65.76000000
   H     79.55000000    83.55000000    68.57000000
   H     77.49000000    82.31000000    66.82000000
   H     78.34000000    85.14000000    67.11000000
   H     77.11000000    85.26000000    65.11000000
   H     78.73000000    83.16000000    64.68000000
   H     79.54000000    84.64000000    64.99000000
   H     79.96000000    83.36000000    66.02000000
   N     75.31000000    83.16000000    67.92000000
   C     74.06000000    83.50000000    68.58000000
   C     73.89000000    84.84000000    69.28000000
   O     74.32000000    85.88000000    68.78000000
   C     72.86000000    83.07000000    67.74000000
   C     72.72000000    83.86000000    66.45000000
   C     72.89000000    81.56000000    67.53000000
   C     71.47000000    83.54000000    65.64000000
   H     75.16000000    82.54000000    67.14000000
   H     74.22000000    82.81000000    69.42000000
   H     71.96000000    83.29000000    68.32000000
   H     73.52000000    83.51000000    65.79000000
   H     72.73000000    84.93000000    66.63000000
   H     73.08000000    81.03000000    68.47000000
   H     71.93000000    81.31000000    67.08000000
   H     73.78000000    81.27000000    66.97000000
   H     71.53000000    83.86000000    64.60000000
   H     71.29000000    82.47000000    65.67000000
   H     70.59000000    84.00000000    66.08000000
   N     73.27000000    84.83000000    70.46000000
   C     73.26000000    85.89000000    71.45000000
   C     74.26000000    85.56000000    72.55000000
   O     73.98000000    85.79000000    73.73000000
   C     71.83000000    86.25000000    71.83000000
   C     71.67000000    87.65000000    72.42000000
   O     72.65000000    88.41000000    72.33000000
   O     70.56000000    87.94000000    72.91000000
   H     72.78000000    83.99000000    70.72000000
   H     73.63000000    86.81000000    70.98000000
   H     71.42000000    85.60000000    72.60000000
   H     71.22000000    86.20000000    70.92000000
   N     75.41000000    84.96000000    72.26000000
   C     76.43000000    84.56000000    73.20000000
   C     76.22000000    83.26000000    73.96000000
   O     76.34000000    83.30000000    75.18000000
   C     77.83000000    84.79000000    72.63000000
   C     78.89000000    84.93000000    73.69000000
   C     79.24000000    83.88000000    74.56000000
   C     79.48000000    86.19000000    73.81000000
   C     80.22000000    84.16000000    75.51000000
   C     80.35000000    86.50000000    74.87000000
   C     80.76000000    85.44000000    75.69000000
   H     75.62000000    84.83000000    71.28000000
   H     76.34000000    85.32000000    73.98000000
   H     77.75000000    85.68000000    72.01000000
   H     78.16000000    83.90000000    72.09000000
   H     78.89000000    82.87000000    74.44000000
   H     79.17000000    87.00000000    73.17000000
   H     80.44000000    83.40000000    76.26000000
   H     80.68000000    87.51000000    75.06000000
   H     81.47000000    85.69000000    76.46000000
   N     76.18000000    82.07000000    73.34000000
   C     75.76000000    81.80000000    71.99000000
   C     74.26000000    81.49000000    71.98000000
   O     73.83000000    80.62000000    71.23000000
   C     76.63000000    80.66000000    71.46000000
   C     76.93000000    79.92000000    72.75000000
   C     76.58000000    80.81000000    73.94000000
   H     75.88000000    82.73000000    71.45000000
   H     76.13000000    80.06000000    70.69000000
   H     77.50000000    81.02000000    70.91000000
   H     76.36000000    78.99000000    72.76000000
   H     78.00000000    79.70000000    72.74000000
   H     75.78000000    80.37000000    74.53000000
   H     77.52000000    80.96000000    74.49000000
   N     73.44000000    82.29000000    72.66000000
   C     72.08000000    81.98000000    73.05000000
   C     71.15000000    82.04000000    71.85000000
   O     71.08000000    83.00000000    71.08000000
   C     71.64000000    82.83000000    74.24000000
   C     70.17000000    82.70000000    74.64000000
   C     69.91000000    81.41000000    75.40000000
   O     69.90000000    80.38000000    74.70000000
   O     70.18000000    81.41000000    76.62000000
   H     73.94000000    83.04000000    73.10000000
   H     72.08000000    80.96000000    73.45000000
   H     71.78000000    83.87000000    73.96000000
   H     72.22000000    82.48000000    75.09000000
   H     69.60000000    82.60000000    73.72000000
   H     69.94000000    83.56000000    75.27000000
   N     70.39000000    80.97000000    71.63000000
   C     69.32000000    80.79000000    70.66000000
   H     68.48600000    81.44500000    70.91400000
   H     69.68600000    81.03900000    69.66400000
   H     68.98500000    79.75300000    70.67600000
   H     70.63000000    80.19000000    72.23000000
  Ca     76.70000000    92.50000000    62.94000000
   O     77.10000000    94.87000000    64.01000000
   H     76.57000000    95.66000000    63.89000000
   H     77.32000000    94.87000000    64.94000000
   O     78.78000000    91.37000000    61.69000000
   H     79.48000000    91.14000000    62.29000000
   H     79.22000000    91.52000000    60.85000000
   O     74.66000000    90.58000000    63.25000000
   H     74.65000000    90.10000000    64.08000000
   H     73.75000000    90.87000000    63.13000000
   O     74.47000000    94.03000000    61.76000000
   H     74.72000000    94.02000000    60.83000000
   H     73.63000000    94.49000000    61.77000000
   O     77.70000000    93.95000000    60.85000000
   H     78.04000000    94.84000000    60.90000000
   H     77.23000000    93.91000000    60.01000000
   O     75.16000000    92.80000000    65.26000000
   H     75.68000000    92.92000000    66.06000000
   H     74.26000000    92.96000000    65.53000000

Ca 1.00



