%chk=loop2.apoCaM-CA-Ng.Init31.run63.water4.chk
%nprocshared=20
%mem=10GB
%nosave
#b3lyp/svp scf=(tight,noincore,xqc) Test 
#IOP(5/87=12) Density=Current Pop=(MK,readradii) iop(6/33=2) iop(6/42=6)

loop2.apoCaM-CA-Ng.Init31.run63.water4 

   -2  1 
   C     86.87000000    80.24000000    -4.48000000
   C     85.66000000    79.33000000    -4.43000000
   O     85.82000000    78.17000000    -4.06000000
   H     87.69700000    79.71700000    -4.96000000
   H     86.62800000    81.13700000    -5.05100000
   H     87.15700000    80.52000000    -3.46600000
   N     84.47000000    79.62000000    -4.96000000
   C     84.05000000    80.89000000    -5.53000000
   C     83.56000000    80.76000000    -6.96000000
   O     82.82000000    79.87000000    -7.37000000
   C     82.95000000    81.49000000    -4.67000000
   C     81.75000000    80.69000000    -4.18000000
   O     81.49000000    79.56000000    -4.63000000
   O     80.90000000    81.27000000    -3.47000000
   H     83.81000000    78.86000000    -4.88000000
   H     84.93000000    81.53000000    -5.53000000
   H     82.58000000    82.41000000    -5.13000000
   H     83.47000000    81.81000000    -3.77000000
   N     83.84000000    81.83000000    -7.71000000
   C     83.48000000    82.02000000    -9.10000000
   C     82.03000000    82.34000000    -9.43000000
   O     81.72000000    83.44000000    -9.87000000
   C     84.02000000    80.98000000   -10.08000000
   H     84.63000000    82.33000000    -7.31000000
   H     83.91000000    82.98000000    -9.37000000
   H     83.53000000    80.01000000   -10.01000000
   H     83.82000000    81.40000000   -11.06000000
   H     85.10000000    80.99000000    -9.93000000
   N     81.12000000    81.40000000    -9.15000000
   C     79.69000000    81.56000000    -9.28000000
   C     79.05000000    81.39000000    -7.91000000
   O     79.60000000    80.61000000    -7.13000000
   C     79.10000000    80.57000000   -10.28000000
   C     79.64000000    79.15000000   -10.10000000
   O     79.40000000    78.37000000   -11.05000000
   O     80.23000000    78.80000000    -9.06000000
   H     81.47000000    80.51000000    -8.84000000
   H     79.55000000    82.57000000    -9.66000000
   H     79.39000000    80.85000000   -11.30000000
   H     78.02000000    80.59000000   -10.14000000
   N     77.96000000    82.10000000    -7.62000000
   C     77.37000000    82.04000000    -6.30000000
   C     76.36000000    80.92000000    -6.06000000
   O     75.60000000    80.68000000    -6.99000000
   H     77.52000000    82.71000000    -8.29000000
   H     76.94000000    83.00000000    -6.01000000
   H     78.24000000    81.88000000    -5.66000000
   N     76.34000000    80.28000000    -4.89000000
   C     75.59000000    79.10000000    -4.51000000
   C     74.66000000    79.33000000    -3.34000000
   O     74.80000000    80.39000000    -2.72000000
   C     76.64000000    78.03000000    -4.22000000
   C     77.23000000    77.60000000    -5.56000000
   N     76.52000000    76.70000000    -6.24000000
   O     78.23000000    78.09000000    -6.07000000
   H     76.96000000    80.62000000    -4.17000000
   H     75.04000000    78.67000000    -5.35000000
   H     76.16000000    77.14000000    -3.80000000
   H     77.43000000    78.40000000    -3.57000000
   H     75.62000000    76.38000000    -5.91000000
   H     76.85000000    76.32000000    -7.12000000
   N     73.86000000    78.33000000    -2.96000000
   C     72.78000000    78.46000000    -2.00000000
   C     72.03000000    77.18000000    -1.66000000
   O     71.98000000    76.24000000    -2.45000000
   H     73.87000000    77.44000000    -3.43000000
   H     72.08000000    79.19000000    -2.42000000
   H     73.17000000    78.91000000    -1.09000000
   N     71.43000000    77.04000000    -0.48000000
   C     71.43000000    77.89000000     0.69000000
   C     72.74000000    77.66000000     1.43000000
   O     73.17000000    78.53000000     2.18000000
   C     70.20000000    77.58000000     1.53000000
   C     68.92000000    78.19000000     0.97000000
   O     69.89000000    76.22000000     1.73000000
   H     71.05000000    76.11000000    -0.32000000
   H     71.42000000    78.95000000     0.42000000
   H     70.26000000    78.02000000     2.53000000
   H     70.53000000    75.97000000     2.39000000
   H     68.83000000    78.02000000    -0.10000000
   H     68.06000000    77.71000000     1.45000000
   H     68.79000000    79.24000000     1.24000000
   N     73.38000000    76.49000000     1.37000000
   C     74.70000000    76.13000000     1.86000000
   C     74.76000000    76.27000000     3.38000000
   O     75.25000000    77.24000000     3.95000000
   C     75.86000000    76.82000000     1.15000000
   C     75.55000000    76.81000000    -0.34000000
   C     77.24000000    76.27000000     1.52000000
   C     75.27000000    75.50000000    -1.06000000
   H     72.95000000    75.77000000     0.81000000
   H     74.86000000    75.08000000     1.61000000
   H     75.98000000    77.86000000     1.47000000
   H     76.48000000    77.17000000    -0.77000000
   H     74.75000000    77.54000000    -0.48000000
   H     77.26000000    75.20000000     1.71000000
   H     78.01000000    76.46000000     0.78000000
   H     77.61000000    76.68000000     2.46000000
   H     75.05000000    75.78000000    -2.10000000
   H     76.12000000    74.82000000    -1.06000000
   H     74.40000000    74.97000000    -0.68000000
   N     74.15000000    75.37000000     4.16000000
   C     73.45000000    74.18000000     3.74000000
   C     74.41000000    73.02000000     3.49000000
   O     74.66000000    72.61000000     2.36000000
   C     72.38000000    73.71000000     4.73000000
   C     72.63000000    74.04000000     6.19000000
   O     71.70000000    73.73000000     6.97000000
   O     73.78000000    74.24000000     6.64000000
   H     74.28000000    75.58000000     5.14000000
   H     72.87000000    74.44000000     2.85000000
   H     72.16000000    72.66000000     4.54000000
   H     71.51000000    74.31000000     4.46000000
   N     74.96000000    72.54000000     4.61000000
   C     75.93000000    71.46000000     4.70000000
   C     75.50000000    70.36000000     5.66000000
   O     74.69000000    70.61000000     6.55000000
   C     77.24000000    72.10000000     5.16000000
   C     77.38000000    72.66000000     6.55000000
   C     76.85000000    73.93000000     6.81000000
   C     78.01000000    71.92000000     7.55000000
   C     77.16000000    74.57000000     8.01000000
   C     78.08000000    72.49000000     8.83000000
   C     77.77000000    73.84000000     9.04000000
   H     74.72000000    73.02000000     5.46000000
   H     76.06000000    71.06000000     3.70000000
   H     77.54000000    72.88000000     4.46000000
   H     78.05000000    71.39000000     5.02000000
   H     76.32000000    74.50000000     6.05000000
   H     78.16000000    70.87000000     7.34000000
   H     76.92000000    75.62000000     8.08000000
   H     78.63000000    71.96000000     9.59000000
   H     78.04000000    74.39000000     9.92000000
   N     75.99000000    69.12000000     5.60000000
   C     76.98000000    68.57000000     4.69000000
   C     76.55000000    68.53000000     3.23000000
   O     75.50000000    69.04000000     2.85000000
   C     77.29000000    67.19000000     5.27000000
   C     76.90000000    67.21000000     6.75000000
   C     75.78000000    68.25000000     6.73000000
   H     77.88000000    69.14000000     4.89000000
   H     76.63000000    66.44000000     4.83000000
   H     78.34000000    66.90000000     5.19000000
   H     76.42000000    66.30000000     7.11000000
   H     77.75000000    67.47000000     7.38000000
   H     74.85000000    67.71000000     6.57000000
   H     75.77000000    68.78000000     7.68000000
   N     77.34000000    67.86000000     2.39000000
   C     77.27000000    67.77000000     0.94000000
   C     78.39000000    68.44000000     0.16000000
   O     78.65000000    67.97000000    -0.95000000
   C     77.25000000    66.28000000     0.61000000
   C     76.07000000    65.55000000     1.25000000
   C     74.72000000    66.08000000     0.82000000
   O     73.98000000    66.61000000     1.67000000
   O     74.38000000    66.03000000    -0.39000000
   H     77.99000000    67.23000000     2.83000000
   H     76.34000000    68.24000000     0.62000000
   H     78.17000000    65.90000000     1.05000000
   H     77.14000000    66.20000000    -0.48000000
   H     76.06000000    65.63000000     2.34000000
   H     76.23000000    64.53000000     0.89000000
   N     79.19000000    69.44000000     0.52000000
   C     79.27000000    70.24000000     1.72000000
   H     79.68000000    71.22000000     1.47600000
   H     78.27300000    70.35900000     2.14500000
   H     79.91800000    69.74600000     2.44400000
   H     79.62000000    69.93000000    -0.26000000
  Ca     80.70000000    78.24000000    -6.55700000
   O     82.99000000    76.93000000    -5.88700000
   H     83.31000000    76.18000000    -5.38700000
   H     83.68000000    77.08000000    -6.54700000
   O     79.88000000    75.86000000    -7.41700000
   H     79.43000000    75.65000000    -8.23700000
   H     80.64000000    75.27000000    -7.39700000
   O     80.40000000    76.67000000    -4.44700000
   H     79.66000000    76.08000000    -4.27700000
   H     80.38000000    77.29000000    -3.71700000
   O     82.49000000    77.04000000    -8.73700000
   H     83.22000000    77.22000000    -9.32700000
   H     81.71000000    77.27000000    -9.24700000

Ca 1.00



