%chk=loop2.apoCaM-CA-Ng.Init31.run16.water3.chk
%nprocshared=20
%mem=10GB
%nosave
#b3lyp/svp scf=(tight,noincore,xqc) Test 
#IOP(5/87=12) Density=Current Pop=(MK,readradii) iop(6/33=2) iop(6/42=6)

loop2.apoCaM-CA-Ng.Init31.run16.water3 

   -2  1 
   C     78.99000000    52.60000000    -8.63000000
   C     77.53000000    52.93000000    -8.88000000
   O     77.09000000    53.84000000    -8.18000000
   H     79.56700000    53.52300000    -8.57700000
   H     79.08500000    52.05900000    -7.68900000
   H     79.36800000    51.98200000    -9.44500000
   N     76.72000000    52.30000000    -9.74000000
   C     76.87000000    51.19000000   -10.67000000
   C     75.96000000    50.03000000   -10.29000000
   O     74.77000000    50.27000000   -10.09000000
   C     76.62000000    51.64000000   -12.10000000
   C     75.41000000    52.50000000   -12.45000000
   O     75.43000000    52.96000000   -13.61000000
   O     74.49000000    52.75000000   -11.63000000
   H     75.75000000    52.57000000    -9.66000000
   H     77.91000000    50.86000000   -10.66000000
   H     76.61000000    50.70000000   -12.66000000
   H     77.52000000    52.17000000   -12.41000000
   N     76.51000000    48.82000000   -10.19000000
   C     75.79000000    47.58000000   -10.01000000
   C     74.77000000    47.32000000   -11.12000000
   O     75.22000000    46.85000000   -12.16000000
   C     75.12000000    47.43000000    -8.65000000
   H     77.50000000    48.70000000   -10.36000000
   H     76.47000000    46.73000000   -10.06000000
   H     75.86000000    47.33000000    -7.86000000
   H     74.35000000    48.19000000    -8.48000000
   H     74.66000000    46.45000000    -8.63000000
   N     73.49000000    47.67000000   -11.02000000
   C     72.59000000    47.61000000   -12.16000000
   C     72.82000000    48.81000000   -13.06000000
   O     72.96000000    49.93000000   -12.57000000
   C     71.14000000    47.40000000   -11.75000000
   C     70.59000000    48.25000000   -10.62000000
   O     71.10000000    49.36000000   -10.36000000
   O     69.54000000    47.84000000   -10.07000000
   H     73.09000000    48.10000000   -10.20000000
   H     72.81000000    46.73000000   -12.77000000
   H     70.98000000    46.40000000   -11.34000000
   H     70.54000000    47.55000000   -12.65000000
   N     72.94000000    48.53000000   -14.37000000
   C     73.14000000    49.52000000   -15.41000000
   C     72.04000000    50.51000000   -15.76000000
   O     71.78000000    50.81000000   -16.92000000
   H     72.84000000    47.55000000   -14.58000000
   H     73.39000000    48.94000000   -16.30000000
   H     73.97000000    50.13000000   -15.06000000
   N     71.49000000    51.15000000   -14.73000000
   C     70.40000000    52.10000000   -14.78000000
   C     70.82000000    53.53000000   -14.50000000
   O     70.01000000    54.45000000   -14.39000000
   C     69.14000000    51.65000000   -14.04000000
   C     69.34000000    51.74000000   -12.53000000
   N     68.23000000    51.74000000   -11.78000000
   O     70.41000000    51.73000000   -11.93000000
   H     71.93000000    51.03000000   -13.82000000
   H     69.96000000    52.12000000   -15.78000000
   H     68.83000000    50.64000000   -14.30000000
   H     68.30000000    52.25000000   -14.38000000
   H     67.33000000    51.84000000   -12.23000000
   H     68.27000000    51.61000000   -10.78000000
   N     72.09000000    53.72000000   -14.16000000
   C     72.60000000    54.93000000   -13.55000000
   C     72.38000000    55.06000000   -12.05000000
   O     71.84000000    54.18000000   -11.39000000
   H     72.69000000    52.92000000   -14.28000000
   H     72.16000000    55.78000000   -14.07000000
   H     73.68000000    54.84000000   -13.68000000
   N     72.69000000    56.18000000   -11.38000000
   C     72.83000000    57.53000000   -11.89000000
   C     73.84000000    58.43000000   -11.19000000
   O     74.31000000    59.35000000   -11.86000000
   C     71.47000000    58.22000000   -11.92000000
   C     70.56000000    57.64000000   -12.99000000
   O     70.95000000    58.34000000   -10.61000000
   H     72.84000000    56.03000000   -10.40000000
   H     73.19000000    57.49000000   -12.92000000
   H     71.50000000    59.26000000   -12.25000000
   H     70.03000000    58.60000000   -10.69000000
   H     69.60000000    58.15000000   -13.09000000
   H     71.03000000    57.68000000   -13.97000000
   H     70.33000000    56.60000000   -12.76000000
   N     74.20000000    58.26000000    -9.92000000
   C     74.96000000    59.11000000    -9.03000000
   C     74.24000000    60.41000000    -8.72000000
   O     74.33000000    61.43000000    -9.40000000
   C     76.37000000    59.40000000    -9.55000000
   C     77.10000000    58.08000000    -9.79000000
   C     77.03000000    60.24000000    -8.45000000
   C     78.45000000    58.18000000   -10.49000000
   H     73.68000000    57.50000000    -9.51000000
   H     75.12000000    58.60000000    -8.08000000
   H     76.27000000    59.93000000   -10.49000000
   H     76.57000000    57.41000000   -10.47000000
   H     77.20000000    57.57000000    -8.84000000
   H     76.88000000    59.74000000    -7.49000000
   H     78.10000000    60.41000000    -8.61000000
   H     76.58000000    61.23000000    -8.42000000
   H     78.95000000    57.21000000   -10.53000000
   H     78.32000000    58.56000000   -11.50000000
   H     79.06000000    58.85000000    -9.88000000
   N     73.47000000    60.49000000    -7.63000000
   C     73.09000000    59.51000000    -6.64000000
   C     73.90000000    59.52000000    -5.35000000
   O     74.05000000    58.46000000    -4.75000000
   C     71.59000000    59.70000000    -6.39000000
   C     71.23000000    61.12000000    -5.98000000
   O     72.11000000    62.01000000    -5.93000000
   O     70.03000000    61.27000000    -5.67000000
   H     73.14000000    61.42000000    -7.43000000
   H     73.30000000    58.53000000    -7.08000000
   H     71.10000000    58.97000000    -5.75000000
   H     71.15000000    59.54000000    -7.37000000
   N     74.42000000    60.69000000    -4.97000000
   C     75.09000000    60.79000000    -3.69000000
   C     74.08000000    60.88000000    -2.56000000
   O     72.88000000    60.94000000    -2.83000000
   C     75.97000000    62.04000000    -3.79000000
   C     75.46000000    63.44000000    -3.58000000
   C     74.71000000    64.00000000    -4.62000000
   C     75.69000000    64.12000000    -2.38000000
   C     74.14000000    65.26000000    -4.38000000
   C     75.07000000    65.36000000    -2.17000000
   C     74.30000000    65.95000000    -3.17000000
   H     74.14000000    61.57000000    -5.38000000
   H     75.73000000    59.91000000    -3.58000000
   H     76.31000000    62.01000000    -4.83000000
   H     76.76000000    61.84000000    -3.07000000
   H     74.55000000    63.47000000    -5.55000000
   H     76.36000000    63.65000000    -1.67000000
   H     73.47000000    65.64000000    -5.14000000
   H     75.19000000    65.83000000    -1.20000000
   H     73.90000000    66.93000000    -2.95000000
   N     74.42000000    60.73000000    -1.28000000
   C     75.78000000    60.50000000    -0.83000000
   C     76.33000000    59.13000000    -1.21000000
   O     75.52000000    58.29000000    -1.57000000
   C     75.79000000    60.70000000     0.69000000
   C     74.39000000    60.25000000     1.10000000
   C     73.57000000    60.69000000    -0.11000000
   H     76.48000000    61.19000000    -1.28000000
   H     76.59000000    60.13000000     1.16000000
   H     75.83000000    61.77000000     0.89000000
   H     74.39000000    59.16000000     1.16000000
   H     74.05000000    60.77000000     2.00000000
   H     72.74000000    59.99000000    -0.19000000
   H     73.22000000    61.71000000     0.05000000
   N     77.66000000    58.99000000    -1.23000000
   C     78.30000000    57.72000000    -1.49000000
   C     79.66000000    57.79000000    -2.17000000
   O     80.63000000    57.21000000    -1.67000000
   C     78.33000000    56.93000000    -0.19000000
   C     78.78000000    57.64000000     1.09000000
   C     80.05000000    58.44000000     0.85000000
   O     81.15000000    57.90000000     1.10000000
   O     79.95000000    59.64000000     0.50000000
   H     78.28000000    59.78000000    -1.07000000
   H     77.64000000    57.09000000    -2.09000000
   H     78.91000000    56.03000000    -0.40000000
   H     77.34000000    56.56000000     0.05000000
   H     79.05000000    56.87000000     1.81000000
   H     78.00000000    58.32000000     1.42000000
   N     79.95000000    58.43000000    -3.30000000
   C     79.14000000    59.37000000    -4.04000000
   H     78.23100000    59.58600000    -3.47900000
   H     79.70000000    60.29300000    -4.19200000
   H     78.87700000    58.94100000    -5.00700000
   H     80.82000000    58.18000000    -3.75000000
  Ca     72.48000000    51.69000000   -10.40800000
   O     72.17000000    50.39000000    -7.83800000
   H     71.78000000    49.61000000    -7.44800000
   H     72.52000000    50.89000000    -7.09800000
   O     73.96000000    52.75000000    -8.41800000
   H     74.12000000    53.60000000    -8.01800000
   H     73.86000000    52.15000000    -7.68800000
   O     70.74000000    53.07000000    -9.05800000
   H     70.31000000    53.63000000    -9.70800000
   H     70.49000000    53.45000000    -8.21800000

Ca 1.00



