%chk=loop3.apoCaM-CA-Ng.Init31.run2.water7.chk
%nprocshared=20
%mem=10GB
%nosave
#b3lyp/svp scf=(tight,noincore,xqc) Test 
#IOP(5/87=12) Density=Current Pop=(MK,readradii) iop(6/33=2) iop(6/42=6)

loop3.apoCaM-CA-Ng.Init31.run2.water7 

   0  1 
   C     64.02000000    57.65000000    38.82000000
   C     63.78000000    56.33000000    39.52000000
   O     62.63000000    55.93000000    39.72000000
   H     65.02500000    57.65900000    38.39700000
   H     63.28900000    57.77700000    38.02100000
   H     63.92100000    58.46500000    39.53700000
   N     64.89000000    55.72000000    39.96000000
   C     64.85000000    54.50000000    40.74000000
   C     64.48000000    54.70000000    42.20000000
   O     63.87000000    53.83000000    42.82000000
   C     66.09000000    53.61000000    40.61000000
   C     67.44000000    54.31000000    40.57000000
   O     67.55000000    55.48000000    41.00000000
   O     68.46000000    53.67000000    40.23000000
   H     65.74000000    56.21000000    39.75000000
   H     64.14000000    53.85000000    40.22000000
   H     65.98000000    53.14000000    39.63000000
   H     66.07000000    52.81000000    41.34000000
   N     64.82000000    55.86000000    42.78000000
   C     64.30000000    56.40000000    44.01000000
   C     65.01000000    55.71000000    45.17000000
   O     66.22000000    55.53000000    45.17000000
   C     64.39000000    57.92000000    44.05000000
   C     63.78000000    58.70000000    42.89000000
   C     63.88000000    60.22000000    43.00000000
   C     65.33000000    60.68000000    43.00000000
   N     65.51000000    62.10000000    43.35000000
   H     65.55000000    56.34000000    42.28000000
   H     63.24000000    56.16000000    44.14000000
   H     65.46000000    58.15000000    44.02000000
   H     64.01000000    58.32000000    44.99000000
   H     62.71000000    58.50000000    42.87000000
   H     64.22000000    58.37000000    41.95000000
   H     63.28000000    60.55000000    43.85000000
   H     63.37000000    60.60000000    42.12000000
   H     65.85000000    60.44000000    42.07000000
   H     65.91000000    60.14000000    43.75000000
   H     66.49000000    62.27000000    43.48000000
   H     65.11000000    62.61000000    42.57000000
   H     64.96000000    62.29000000    44.18000000
   N     64.25000000    55.34000000    46.21000000
   C     64.73000000    54.39000000    47.18000000
   C     65.05000000    52.99000000    46.68000000
   O     65.70000000    52.21000000    47.37000000
   C     63.79000000    54.13000000    48.36000000
   C     63.14000000    55.41000000    48.87000000
   O     63.95000000    56.27000000    49.26000000
   O     61.89000000    55.50000000    48.83000000
   H     63.26000000    55.56000000    46.16000000
   H     65.69000000    54.74000000    47.56000000
   H     64.32000000    53.60000000    49.15000000
   H     63.00000000    53.46000000    48.01000000
   N     64.68000000    52.64000000    45.44000000
   C     65.21000000    51.51000000    44.71000000
   C     66.68000000    51.68000000    44.33000000
   O     67.20000000    52.78000000    44.24000000
   H     64.37000000    53.42000000    44.89000000
   H     64.58000000    51.37000000    43.83000000
   H     65.12000000    50.58000000    45.27000000
   N     67.35000000    50.58000000    43.95000000
   C     66.91000000    49.21000000    43.76000000
   C     67.82000000    48.63000000    42.69000000
   O     68.82000000    47.95000000    42.91000000
   C     66.98000000    48.39000000    45.04000000
   C     66.49000000    46.98000000    44.77000000
   N     66.81000000    46.07000000    45.70000000
   O     65.88000000    46.74000000    43.73000000
   H     68.30000000    50.76000000    43.67000000
   H     65.91000000    49.15000000    43.33000000
   H     66.36000000    48.84000000    45.82000000
   H     68.02000000    48.42000000    45.34000000
   H     67.48000000    46.32000000    46.41000000
   H     66.52000000    45.11000000    45.58000000
   N     67.49000000    48.97000000    41.44000000
   C     66.57000000    49.95000000    40.90000000
   C     65.08000000    49.65000000    40.96000000
   O     64.32000000    50.49000000    40.48000000
   H     68.15000000    48.58000000    40.77000000
   H     66.78000000    50.11000000    39.84000000
   H     66.79000000    50.89000000    41.42000000
   N     64.62000000    48.52000000    41.50000000
   C     63.20000000    48.24000000    41.58000000
   C     62.47000000    49.12000000    42.59000000
   O     62.89000000    49.15000000    43.74000000
   C     63.00000000    46.74000000    41.78000000
   C     63.36000000    45.76000000    40.69000000
   C     62.33000000    45.10000000    40.00000000
   C     64.70000000    45.46000000    40.41000000
   C     62.65000000    44.27000000    38.93000000
   C     65.03000000    44.61000000    39.35000000
   C     64.00000000    44.07000000    38.56000000
   O     64.32000000    43.25000000    37.52000000
   H     65.27000000    47.82000000    41.83000000
   H     62.88000000    48.52000000    40.58000000
   H     62.05000000    46.45000000    42.25000000
   H     63.69000000    46.40000000    42.56000000
   H     61.29000000    45.38000000    40.15000000
   H     65.44000000    45.91000000    41.05000000
   H     61.84000000    43.97000000    38.29000000
   H     66.04000000    44.41000000    39.01000000
   H     65.26000000    43.09000000    37.40000000
   N     61.40000000    49.79000000    42.17000000
   C     60.68000000    50.72000000    43.02000000
   C     60.00000000    49.96000000    44.15000000
   O     59.47000000    48.87000000    43.98000000
   C     59.82000000    51.76000000    42.32000000
   C     60.70000000    52.73000000    41.54000000
   C     58.80000000    51.14000000    41.37000000
   C     59.91000000    53.72000000    40.67000000
   H     61.04000000    49.60000000    41.24000000
   H     61.51000000    51.28000000    43.46000000
   H     59.21000000    52.34000000    43.02000000
   H     61.38000000    52.21000000    40.86000000
   H     61.30000000    53.29000000    42.26000000
   H     58.34000000    50.33000000    41.95000000
   H     58.02000000    51.85000000    41.10000000
   H     59.24000000    50.89000000    40.40000000
   H     60.57000000    54.37000000    40.09000000
   H     59.28000000    53.24000000    39.93000000
   H     59.25000000    54.24000000    41.35000000
   N     59.89000000    50.64000000    45.30000000
   C     59.22000000    50.13000000    46.48000000
   C     57.71000000    50.03000000    46.31000000
   O     57.14000000    50.31000000    45.26000000
   C     59.83000000    48.83000000    47.00000000
   O     59.24000000    47.68000000    46.43000000
   H     60.43000000    51.49000000    45.39000000
   H     59.55000000    50.84000000    47.24000000
   H     59.85000000    48.88000000    48.09000000
   H     60.88000000    48.90000000    46.72000000
   H     59.13000000    47.92000000    45.51000000
   N     57.08000000    49.56000000    47.39000000
   C     55.63000000    49.57000000    47.41000000
   C     55.14000000    51.01000000    47.40000000
   O     55.69000000    51.93000000    48.02000000
   C     55.30000000    48.82000000    48.70000000
   H     57.56000000    49.29000000    48.23000000
   H     55.22000000    49.01000000    46.57000000
   H     55.62000000    47.78000000    48.75000000
   H     55.63000000    49.40000000    49.56000000
   H     54.21000000    48.86000000    48.67000000
   N     53.97000000    51.21000000    46.79000000
   C     53.21000000    52.44000000    46.66000000
   C     53.97000000    53.70000000    46.28000000
   O     53.59000000    54.82000000    46.61000000
   C     52.32000000    52.56000000    47.89000000
   H     53.53000000    50.37000000    46.43000000
   H     52.51000000    52.30000000    45.83000000
   H     51.63000000    53.37000000    47.67000000
   H     51.71000000    51.67000000    48.03000000
   H     52.86000000    52.70000000    48.83000000
   N     55.05000000    53.53000000    45.52000000
   C     55.86000000    54.61000000    44.99000000
   C     55.35000000    55.07000000    43.63000000
   O     55.49000000    56.23000000    43.26000000
   C     57.28000000    54.09000000    44.80000000
   C     58.32000000    55.21000000    44.82000000
   C     58.68000000    55.77000000    46.19000000
   O     59.52000000    55.24000000    46.93000000
   O     57.88000000    56.60000000    46.69000000
   H     55.24000000    52.56000000    45.28000000
   H     55.85000000    55.43000000    45.70000000
   H     57.43000000    53.60000000    43.84000000
   H     57.58000000    53.40000000    45.59000000
   H     57.97000000    55.95000000    44.09000000
   H     59.24000000    54.80000000    44.40000000
   N     54.81000000    54.09000000    42.90000000
   C     53.91000000    54.33000000    41.78000000
   H     53.03000000    54.87000000    42.13100000
   H     54.42200000    54.92400000    41.02300000
   H     53.60300000    53.37700000    41.34900000
   H     54.89000000    53.16000000    43.28000000
  Ca     59.55000000    55.01000000    49.45000000
   O     58.43000000    52.89000000    51.22000000
   H     58.99000000    52.25000000    51.65000000
   H     57.71000000    53.04000000    51.83000000
   O     57.26000000    55.86000000    51.15000000
   H     56.52000000    55.26000000    51.28000000
   H     57.40000000    56.25000000    52.01000000
   O     60.06000000    56.63000000    51.57000000
   H     60.08000000    57.53000000    51.91000000
   H     60.25000000    56.09000000    52.34000000
   O     60.13000000    52.37000000    48.75000000
   H     60.97000000    51.92000000    48.74000000
   H     59.51000000    51.73000000    49.09000000
   O     61.33000000    53.93000000    51.22000000
   H     60.91000000    53.23000000    51.73000000
   H     62.26000000    53.77000000    51.32000000
   O     59.27000000    57.45000000    48.82000000
   H     58.94000000    58.23000000    49.26000000
   H     58.75000000    57.39000000    48.01000000
   O     56.81000000    54.47000000    48.65000000
   H     56.67000000    53.53000000    48.51000000
   H     55.98000000    54.79000000    49.00000000

Ca 1.00



