%chk=loop2.apoCaM-CA-Ng.Init293.run32.water7.chk
%nprocshared=20
%mem=10GB
%nosave
#b3lyp/svp scf=(tight,noincore,xqc) Test 
#IOP(5/87=12) Density=Current Pop=(MK,readradii) iop(6/33=2) iop(6/42=6)

loop2.apoCaM-CA-Ng.Init293.run32.water7 

   -2  1 
   C     60.17000000    -8.92000000    21.52000000
   C     60.42000000    -9.35000000    22.96000000
   O     60.55000000    -8.55000000    23.88000000
   H     59.41500000    -8.13400000    21.50200000
   H     61.09600000    -8.54300000    21.08700000
   H     59.81900000    -9.77400000    20.94100000
   N     60.60000000   -10.63000000    23.29000000
   C     60.98000000   -11.22000000    24.56000000
   C     62.34000000   -10.75000000    25.03000000
   O     62.39000000   -10.14000000    26.10000000
   C     60.85000000   -12.74000000    24.60000000
   C     61.29000000   -13.29000000    25.95000000
   O     62.23000000   -14.11000000    25.96000000
   O     60.73000000   -13.00000000    27.03000000
   H     60.58000000   -11.32000000    22.55000000
   H     60.25000000   -10.90000000    25.31000000
   H     61.46000000   -13.13000000    23.79000000
   H     59.88000000   -13.09000000    24.26000000
   N     63.39000000   -10.79000000    24.21000000
   C     64.70000000   -10.20000000    24.40000000
   C     64.69000000    -8.75000000    24.87000000
   O     65.58000000    -8.34000000    25.61000000
   C     65.57000000   -11.12000000    25.25000000
   H     63.43000000   -11.47000000    23.46000000
   H     65.21000000   -10.24000000    23.44000000
   H     65.50000000   -12.08000000    24.75000000
   H     66.60000000   -10.75000000    25.32000000
   H     65.16000000   -11.22000000    26.26000000
   N     63.84000000    -7.86000000    24.35000000
   C     63.71000000    -6.49000000    24.80000000
   C     63.56000000    -6.32000000    26.31000000
   O     64.12000000    -5.42000000    26.94000000
   C     64.82000000    -5.61000000    24.22000000
   C     65.18000000    -5.79000000    22.76000000
   O     64.32000000    -5.61000000    21.87000000
   O     66.29000000    -6.29000000    22.46000000
   H     63.12000000    -8.16000000    23.72000000
   H     62.81000000    -6.19000000    24.27000000
   H     65.73000000    -5.84000000    24.77000000
   H     64.64000000    -4.56000000    24.46000000
   N     62.86000000    -7.29000000    26.89000000
   C     62.63000000    -7.35000000    28.32000000
   C     61.80000000    -6.19000000    28.85000000
   O     60.98000000    -5.58000000    28.16000000
   H     62.45000000    -8.01000000    26.32000000
   H     63.55000000    -7.39000000    28.90000000
   H     62.12000000    -8.30000000    28.52000000
   N     61.86000000    -6.00000000    30.17000000
   C     61.04000000    -5.19000000    31.05000000
   C     59.54000000    -5.45000000    30.96000000
   O     58.77000000    -4.50000000    31.16000000
   C     61.45000000    -3.73000000    30.93000000
   C     62.92000000    -3.44000000    31.18000000
   N     63.33000000    -3.55000000    32.45000000
   O     63.68000000    -2.97000000    30.33000000
   H     62.50000000    -6.63000000    30.62000000
   H     61.38000000    -5.57000000    32.01000000
   H     60.90000000    -3.12000000    31.64000000
   H     61.09000000    -3.30000000    29.99000000
   H     62.65000000    -3.81000000    33.16000000
   H     64.30000000    -3.47000000    32.70000000
   N     59.16000000    -6.72000000    30.81000000
   C     57.79000000    -7.16000000    30.85000000
   C     57.16000000    -7.23000000    29.46000000
   O     56.33000000    -8.11000000    29.25000000
   H     59.93000000    -7.36000000    30.65000000
   H     57.17000000    -6.48000000    31.44000000
   H     57.67000000    -8.13000000    31.34000000
   N     57.65000000    -6.49000000    28.46000000
   C     57.48000000    -6.83000000    27.06000000
   C     57.18000000    -5.61000000    26.20000000
   O     57.60000000    -4.50000000    26.52000000
   C     58.69000000    -7.53000000    26.47000000
   C     59.23000000    -8.60000000    27.43000000
   O     58.28000000    -8.13000000    25.26000000
   H     58.39000000    -5.83000000    28.67000000
   H     56.68000000    -7.56000000    26.95000000
   H     59.50000000    -6.83000000    26.26000000
   H     58.98000000    -8.26000000    24.62000000
   H     59.89000000    -8.23000000    28.21000000
   H     58.36000000    -9.10000000    27.87000000
   H     59.77000000    -9.30000000    26.79000000
   N     56.45000000    -5.78000000    25.09000000
   C     56.24000000    -4.73000000    24.11000000
   C     57.54000000    -4.12000000    23.61000000
   O     58.50000000    -4.84000000    23.37000000
   C     55.23000000    -5.14000000    23.05000000
   C     55.61000000    -6.38000000    22.25000000
   C     53.82000000    -5.16000000    23.63000000
   C     54.97000000    -6.42000000    20.86000000
   H     56.10000000    -6.71000000    24.90000000
   H     55.68000000    -3.95000000    24.63000000
   H     55.17000000    -4.29000000    22.36000000
   H     55.23000000    -7.21000000    22.85000000
   H     56.68000000    -6.56000000    22.19000000
   H     53.51000000    -4.15000000    23.91000000
   H     53.05000000    -5.48000000    22.92000000
   H     53.75000000    -5.62000000    24.61000000
   H     53.89000000    -6.54000000    20.90000000
   H     55.12000000    -5.46000000    20.37000000
   H     55.45000000    -7.23000000    20.30000000
   N     57.58000000    -2.79000000    23.46000000
   C     58.79000000    -2.00000000    23.45000000
   C     58.87000000    -1.10000000    24.68000000
   O     58.89000000     0.12000000    24.57000000
   C     59.10000000    -1.34000000    22.11000000
   C     60.60000000    -1.19000000    21.93000000
   O     61.10000000    -1.89000000    21.02000000
   O     61.23000000    -0.32000000    22.56000000
   H     56.70000000    -2.30000000    23.30000000
   H     59.65000000    -2.67000000    23.58000000
   H     58.58000000    -0.38000000    22.02000000
   H     58.66000000    -1.92000000    21.31000000
   N     58.73000000    -1.75000000    25.84000000
   C     58.92000000    -1.02000000    27.08000000
   C     57.86000000    -0.02000000    27.49000000
   O     58.39000000     1.03000000    27.85000000
   C     58.97000000    -2.01000000    28.24000000
   C     59.17000000    -1.37000000    29.59000000
   C     58.17000000    -1.44000000    30.57000000
   C     60.29000000    -0.56000000    29.79000000
   C     58.38000000    -0.77000000    31.78000000
   C     60.50000000     0.11000000    31.00000000
   C     59.50000000     0.05000000    31.97000000
   H     58.48000000    -2.73000000    25.88000000
   H     59.88000000    -0.51000000    27.03000000
   H     59.92000000    -2.51000000    28.06000000
   H     58.10000000    -2.66000000    28.32000000
   H     57.33000000    -2.11000000    30.42000000
   H     61.05000000    -0.42000000    29.03000000
   H     57.58000000    -0.89000000    32.50000000
   H     61.46000000     0.61000000    31.10000000
   H     59.65000000     0.58000000    32.89000000
   N     56.53000000    -0.14000000    27.51000000
   C     55.79000000    -1.27000000    26.99000000
   C     55.27000000    -1.07000000    25.57000000
   O     54.49000000    -1.90000000    25.11000000
   C     54.66000000    -1.44000000    28.00000000
   C     54.24000000     0.01000000    28.18000000
   C     55.59000000     0.73000000    28.19000000
   H     56.38000000    -2.18000000    26.97000000
   H     53.92000000    -2.14000000    27.63000000
   H     55.16000000    -1.67000000    28.95000000
   H     53.66000000     0.34000000    27.32000000
   H     53.65000000     0.24000000    29.07000000
   H     55.55000000     1.72000000    27.74000000
   H     55.89000000     0.72000000    29.24000000
   N     55.54000000     0.07000000    24.93000000
   C     54.76000000     0.64000000    23.85000000
   C     54.77000000    -0.17000000    22.56000000
   O     55.77000000    -0.84000000    22.33000000
   C     55.08000000     2.11000000    23.64000000
   C     53.94000000     2.94000000    23.06000000
   C     54.39000000     4.39000000    22.96000000
   O     55.49000000     4.57000000    22.39000000
   O     53.70000000     5.26000000    23.53000000
   H     56.11000000     0.74000000    25.43000000
   H     53.73000000     0.62000000    24.21000000
   H     55.92000000     2.18000000    22.94000000
   H     55.36000000     2.49000000    24.62000000
   H     53.13000000     2.95000000    23.79000000
   H     53.56000000     2.47000000    22.15000000
   N     53.72000000    -0.10000000    21.73000000
   C     53.50000000    -0.93000000    20.57000000
   H     52.72200000    -0.48600000    19.94900000
   H     54.42400000    -1.00500000    19.99600000
   H     53.18700000    -1.92400000    20.88800000
   H     53.00000000     0.58000000    21.89000000
  Ca     62.80000000    -3.81500000    20.80000000
   O     62.81000000    -2.49500000    18.32000000
   H     62.08000000    -2.40500000    17.71000000
   H     63.27000000    -1.65500000    18.28000000
   O     65.49000000    -3.69500000    19.59000000
   H     65.55000000    -3.37500000    18.69000000
   H     66.40000000    -3.84500000    19.86000000
   O     63.14000000    -5.97500000    19.10000000
   H     62.89000000    -6.88500000    18.98000000
   H     64.04000000    -5.92500000    18.77000000
   O     60.89000000    -5.60500000    22.15000000
   H     60.03000000    -5.18500000    22.22000000
   H     60.88000000    -6.28500000    22.82000000
   O     62.50000000    -3.44500000    23.51000000
   H     62.89000000    -2.84500000    24.15000000
   H     61.93000000    -4.01500000    24.03000000
   O     64.35000000    -1.74500000    21.06000000
   H     65.17000000    -1.50500000    20.63000000
   H     64.08000000    -0.93500000    21.51000000
   O     60.52000000    -4.40500000    19.43000000
   H     60.47000000    -3.89500000    18.63000000
   H     60.41000000    -5.31500000    19.14000000

Ca 1.00



