%chk=loop1.apoCaM-CA-Ng.Init293.run75.water6.chk
%nprocshared=20
%mem=10GB
%nosave
#b3lyp/svp scf=(tight,noincore,xqc) Test 
#IOP(5/87=12) Density=Current Pop=(MK,readradii) iop(6/33=2) iop(6/42=6)

loop1.apoCaM-CA-Ng.Init293.run75.water6 

   0  1 
   C     91.81000000    90.01000000    39.86000000
   C     93.10000000    90.05000000    39.06000000
   O     93.19000000    89.92000000    37.84000000
   H     91.00500000    89.62900000    39.23200000
   H     91.93700000    89.35600000    40.72300000
   H     91.56100000    91.01600000    40.19900000
   N     94.17000000    90.41000000    39.78000000
   C     95.51000000    90.72000000    39.30000000
   C     96.38000000    89.54000000    38.91000000
   O     97.47000000    89.66000000    38.36000000
   C     96.34000000    91.57000000    40.27000000
   C     96.19000000    91.12000000    41.72000000
   O     97.03000000    90.30000000    42.15000000
   O     95.28000000    91.58000000    42.43000000
   H     93.98000000    90.48000000    40.77000000
   H     95.48000000    91.33000000    38.40000000
   H     95.99000000    92.58000000    40.07000000
   H     97.40000000    91.58000000    40.01000000
   N     95.84000000    88.37000000    39.27000000
   C     96.52000000    87.10000000    39.04000000
   C     96.02000000    86.34000000    37.82000000
   O     94.82000000    86.10000000    37.76000000
   C     96.24000000    86.26000000    40.28000000
   C     96.81000000    86.85000000    41.56000000
   C     98.30000000    87.21000000    41.60000000
   C     98.85000000    87.39000000    43.01000000
   N     98.07000000    88.30000000    43.88000000
   H     94.88000000    88.40000000    39.56000000
   H     97.59000000    87.26000000    38.90000000
   H     96.81000000    85.35000000    40.08000000
   H     95.15000000    86.22000000    40.35000000
   H     96.51000000    86.17000000    42.36000000
   H     96.35000000    87.82000000    41.72000000
   H     98.47000000    88.16000000    41.09000000
   H     98.83000000    86.40000000    41.12000000
   H     99.90000000    87.66000000    42.97000000
   H     98.74000000    86.40000000    43.44000000
   H     97.34000000    87.86000000    44.42000000
   H     98.73000000    88.71000000    44.52000000
   H     97.66000000    88.99000000    43.27000000
   N     96.78000000    85.84000000    36.84000000
   C     98.21000000    86.04000000    36.70000000
   C     98.61000000    85.97000000    35.23000000
   O     99.35000000    85.06000000    34.86000000
   C     98.94000000    85.06000000    37.62000000
   C    100.42000000    85.34000000    37.82000000
   O    101.08000000    84.62000000    38.61000000
   O    100.89000000    86.38000000    37.32000000
   H     96.35000000    85.35000000    36.08000000
   H     98.55000000    87.02000000    37.04000000
   H     98.75000000    84.07000000    37.20000000
   H     98.56000000    85.21000000    38.63000000
   N     98.21000000    86.90000000    34.36000000
   C     97.40000000    88.07000000    34.61000000
   C     97.32000000    89.07000000    33.47000000
   O     98.21000000    89.10000000    32.62000000
   H     98.64000000    86.83000000    33.45000000
   H     97.69000000    88.52000000    35.56000000
   H     96.38000000    87.72000000    34.78000000
   N     96.27000000    89.90000000    33.44000000
   C     95.15000000    89.93000000    34.36000000
   C     94.81000000    91.38000000    34.69000000
   O     94.73000000    92.31000000    33.90000000
   C     93.89000000    89.25000000    33.82000000
   C     94.14000000    87.86000000    33.26000000
   O     93.80000000    86.86000000    33.93000000
   O     94.66000000    87.81000000    32.12000000
   H     96.16000000    90.35000000    32.54000000
   H     95.39000000    89.43000000    35.30000000
   H     93.58000000    89.86000000    32.98000000
   H     93.13000000    89.22000000    34.60000000
   N     94.25000000    91.60000000    35.89000000
   C     93.76000000    92.91000000    36.26000000
   C     92.36000000    93.23000000    35.75000000
   O     91.68000000    94.12000000    36.26000000
   H     93.99000000    90.81000000    36.47000000
   H     94.49000000    93.65000000    35.96000000
   H     93.69000000    93.04000000    37.34000000
   N     91.86000000    92.45000000    34.79000000
   C     90.53000000    92.58000000    34.25000000
   C     89.84000000    91.26000000    34.56000000
   O     90.49000000    90.24000000    34.81000000
   C     90.57000000    92.86000000    32.75000000
   C     91.54000000    92.01000000    31.93000000
   O     90.93000000    94.21000000    32.53000000
   H     92.51000000    91.73000000    34.48000000
   H     89.91000000    93.40000000    34.63000000
   H     89.54000000    92.72000000    32.43000000
   H     91.23000000    94.33000000    31.63000000
   H     91.29000000    90.96000000    32.07000000
   H     91.45000000    92.29000000    30.88000000
   H     92.58000000    92.27000000    32.15000000
   N     88.51000000    91.22000000    34.43000000
   C     87.77000000    89.98000000    34.32000000
   C     86.56000000    90.18000000    33.41000000
   O     85.94000000    91.24000000    33.45000000
   C     87.36000000    89.49000000    35.70000000
   C     86.36000000    88.34000000    35.54000000
   C     86.92000000    90.56000000    36.69000000
   C     86.49000000    87.32000000    36.67000000
   H     88.05000000    92.12000000    34.36000000
   H     88.31000000    89.15000000    33.87000000
   H     88.29000000    89.09000000    36.10000000
   H     86.62000000    87.67000000    34.73000000
   H     85.35000000    88.74000000    35.46000000
   H     86.19000000    91.20000000    36.20000000
   H     86.27000000    90.15000000    37.47000000
   H     87.76000000    91.17000000    37.01000000
   H     86.26000000    87.81000000    37.62000000
   H     85.85000000    86.46000000    36.49000000
   H     87.52000000    86.96000000    36.66000000
   N     86.34000000    89.18000000    32.56000000
   C     85.24000000    89.16000000    31.62000000
   C     84.54000000    87.81000000    31.68000000
   O     83.48000000    87.61000000    31.09000000
   C     85.70000000    89.40000000    30.19000000
   C     86.82000000    88.43000000    29.81000000
   O     86.14000000    90.74000000    30.25000000
   H     87.08000000    88.49000000    32.57000000
   H     84.45000000    89.85000000    31.92000000
   H     84.81000000    89.40000000    29.55000000
   H     85.61000000    91.32000000    30.80000000
   H     87.62000000    88.48000000    30.54000000
   H     86.31000000    87.47000000    29.72000000
   H     87.09000000    88.63000000    28.77000000
   N     85.02000000    86.88000000    32.52000000
   C     84.43000000    85.65000000    33.00000000
   C     84.46000000    84.65000000    31.85000000
   O     84.60000000    85.00000000    30.68000000
   C     83.08000000    85.99000000    33.63000000
   C     83.02000000    87.04000000    34.73000000
   O     82.55000000    84.90000000    34.33000000
   H     85.95000000    87.06000000    32.87000000
   H     84.97000000    85.25000000    33.86000000
   H     82.41000000    86.30000000    32.83000000
   H     81.86000000    85.22000000    34.92000000
   H     83.42000000    87.97000000    34.31000000
   H     82.02000000    87.31000000    35.06000000
   H     83.62000000    86.80000000    35.60000000
   N     84.50000000    83.35000000    32.13000000
   C     84.58000000    82.29000000    31.15000000
   C     85.86000000    81.47000000    31.09000000
   O     86.16000000    80.96000000    30.01000000
   C     83.34000000    81.39000000    31.23000000
   C     82.35000000    81.55000000    30.09000000
   C     81.71000000    82.93000000    30.07000000
   C     80.51000000    83.06000000    29.13000000
   N     79.94000000    84.41000000    29.04000000
   H     84.43000000    83.05000000    33.10000000
   H     84.53000000    82.74000000    30.16000000
   H     82.89000000    81.63000000    32.20000000
   H     83.72000000    80.37000000    31.18000000
   H     81.53000000    80.85000000    30.26000000
   H     82.73000000    81.35000000    29.08000000
   H     82.48000000    83.63000000    29.73000000
   H     81.39000000    83.21000000    31.07000000
   H     79.75000000    82.40000000    29.55000000
   H     80.80000000    82.85000000    28.10000000
   H     80.63000000    85.13000000    28.85000000
   H     79.26000000    84.61000000    28.32000000
   H     79.52000000    84.63000000    29.94000000
   N     86.76000000    81.29000000    32.06000000
   C     86.84000000    81.48000000    33.49000000
   C     85.51000000    81.31000000    34.22000000
   O     84.98000000    82.23000000    34.85000000
   C     87.47000000    82.86000000    33.63000000
   C     87.84000000    83.18000000    35.08000000
   C     89.12000000    84.00000000    34.98000000
   O     90.23000000    83.49000000    35.29000000
   O     89.13000000    85.18000000    34.58000000
   H     87.39000000    80.57000000    31.75000000
   H     87.50000000    80.75000000    33.95000000
   H     86.86000000    83.68000000    33.25000000
   H     88.46000000    82.85000000    33.17000000
   H     88.01000000    82.30000000    35.70000000
   H     87.01000000    83.76000000    35.48000000
   N     84.94000000    80.10000000    34.15000000
   C     83.69000000    79.83000000    34.82000000
   H     82.90600000    79.67700000    34.07800000
   H     83.79100000    78.93300000    35.43100000
   H     83.42800000    80.67600000    35.45600000
   H     85.37000000    79.41000000    33.55000000
  Ca     91.62000000    85.59000000    34.77000000
   O     91.18000000    85.22000000    32.15000000
   H     90.88000000    84.48000000    31.63000000
   H     91.38000000    85.90000000    31.52000000
   O     92.91000000    83.26000000    33.84000000
   H     92.47000000    82.48000000    33.51000000
   H     93.74000000    83.30000000    33.37000000
   O     90.98000000    87.83000000    33.65000000
   H     90.89000000    88.65000000    34.14000000
   H     90.73000000    88.06000000    32.75000000
   O     92.82000000    87.43000000    36.65000000
   H     93.67000000    87.10000000    36.94000000
   H     92.82000000    88.35000000    36.92000000
   O     90.50000000    85.71000000    37.47000000
   H     90.16000000    84.97000000    37.98000000
   H     91.25000000    86.03000000    37.97000000
   O     93.09000000    84.30000000    36.60000000
   H     93.75000000    84.89000000    36.96000000
   H     93.52000000    83.45000000    36.54000000

Ca 1.00



