%chk=loop1.apoCaM-CA-Ng.Init295.run67.water5.chk
%nprocshared=20
%mem=10GB
%nosave
#b3lyp/svp scf=(tight,noincore,xqc) Test 
#IOP(5/87=12) Density=Current Pop=(MK,readradii) iop(6/33=2) iop(6/42=6)

loop1.apoCaM-CA-Ng.Init295.run67.water5 

   0  1 
   C     89.21000000    14.33000000    39.95000000
   C     88.79000000    15.36000000    38.91000000
   O     87.73000000    15.25000000    38.30000000
   H     90.09600000    14.68600000    40.47600000
   H     88.39900000    14.18200000    40.66300000
   H     89.43700000    13.38500000    39.45600000
   N     89.67000000    16.31000000    38.59000000
   C     89.47000000    17.10000000    37.39000000
   C     89.49000000    16.27000000    36.11000000
   O     90.08000000    15.20000000    36.00000000
   C     90.58000000    18.13000000    37.22000000
   C     90.80000000    18.87000000    38.53000000
   O     91.93000000    18.78000000    39.04000000
   O     89.83000000    19.59000000    38.86000000
   H     90.57000000    16.30000000    39.05000000
   H     88.50000000    17.59000000    37.45000000
   H     90.12000000    18.84000000    36.53000000
   H     91.52000000    17.71000000    36.86000000
   N     88.79000000    16.82000000    35.12000000
   C     88.73000000    16.24000000    33.79000000
   C     89.84000000    16.84000000    32.94000000
   O     90.33000000    16.16000000    32.04000000
   C     87.33000000    16.34000000    33.20000000
   C     87.18000000    15.56000000    31.89000000
   C     85.74000000    15.15000000    31.60000000
   C     84.69000000    16.23000000    31.87000000
   N     83.35000000    15.69000000    31.62000000
   H     88.60000000    17.81000000    35.20000000
   H     88.83000000    15.16000000    33.93000000
   H     87.05000000    17.38000000    33.05000000
   H     86.62000000    15.99000000    33.95000000
   H     87.65000000    14.58000000    31.92000000
   H     87.52000000    16.14000000    31.03000000
   H     85.47000000    14.35000000    32.29000000
   H     85.66000000    14.80000000    30.57000000
   H     84.90000000    17.11000000    31.27000000
   H     84.87000000    16.57000000    32.89000000
   H     83.29000000    15.24000000    30.71000000
   H     82.97000000    15.10000000    32.34000000
   H     82.78000000    16.53000000    31.61000000
   N     90.24000000    18.09000000    33.16000000
   C     91.36000000    18.68000000    32.46000000
   C     92.02000000    19.73000000    33.35000000
   O     91.29000000    20.58000000    33.85000000
   C     90.70000000    19.30000000    31.23000000
   C     91.64000000    20.15000000    30.38000000
   O     91.19000000    21.15000000    29.79000000
   O     92.75000000    19.65000000    30.12000000
   H     89.75000000    18.57000000    33.91000000
   H     92.16000000    17.99000000    32.21000000
   H     89.92000000    19.98000000    31.56000000
   H     90.27000000    18.46000000    30.68000000
   N     93.35000000    19.67000000    33.44000000
   C     94.20000000    20.70000000    34.00000000
   C     95.51000000    20.74000000    33.22000000
   O     96.01000000    19.66000000    32.91000000
   H     93.82000000    18.95000000    32.90000000
   H     94.36000000    20.45000000    35.05000000
   H     93.72000000    21.67000000    33.85000000
   N     95.93000000    21.95000000    32.84000000
   C     97.09000000    22.23000000    32.02000000
   C     98.07000000    22.96000000    32.92000000
   O     97.77000000    23.99000000    33.53000000
   C     96.81000000    22.95000000    30.69000000
   C     95.72000000    22.38000000    29.79000000
   O     96.07000000    21.86000000    28.71000000
   O     94.52000000    22.40000000    30.13000000
   H     95.55000000    22.75000000    33.33000000
   H     97.51000000    21.26000000    31.76000000
   H     97.79000000    23.13000000    30.24000000
   H     96.42000000    23.94000000    30.94000000
   N     99.17000000    22.27000000    33.22000000
   C    100.17000000    22.73000000    34.16000000
   C     99.78000000    22.41000000    35.60000000
   O     98.72000000    21.85000000    35.87000000
   H     99.19000000    21.32000000    32.86000000
   H    100.28000000    23.81000000    34.05000000
   H    101.09000000    22.16000000    34.05000000
   N    100.60000000    22.80000000    36.59000000
   C    100.59000000    22.35000000    37.97000000
   C    101.99000000    21.87000000    38.31000000
   O    102.99000000    22.46000000    37.90000000
   C    100.19000000    23.57000000    38.80000000
   C     98.86000000    24.14000000    38.32000000
   O    100.00000000    23.06000000    40.10000000
   H    101.37000000    23.37000000    36.27000000
   H     99.85000000    21.58000000    38.14000000
   H    100.97000000    24.33000000    38.75000000
   H     99.92000000    23.76000000    40.75000000
   H     98.43000000    24.97000000    38.89000000
   H     98.99000000    24.52000000    37.31000000
   H     98.23000000    23.25000000    38.28000000
   N    102.10000000    20.79000000    39.08000000
   C    103.31000000    20.21000000    39.63000000
   C    104.00000000    19.22000000    38.70000000
   O    105.22000000    19.09000000    38.66000000
   C    103.13000000    19.70000000    41.06000000
   C    101.95000000    18.74000000    41.19000000
   C    103.06000000    20.80000000    42.11000000
   C    101.72000000    18.19000000    42.59000000
   H    101.31000000    20.28000000    39.47000000
   H    104.05000000    21.01000000    39.72000000
   H    104.06000000    19.18000000    41.28000000
   H    102.11000000    17.88000000    40.55000000
   H    100.99000000    19.20000000    40.91000000
   H    102.19000000    21.45000000    42.08000000
   H    103.11000000    20.45000000    43.14000000
   H    104.02000000    21.31000000    41.99000000
   H    101.45000000    19.00000000    43.28000000
   H    100.96000000    17.41000000    42.63000000
   H    102.61000000    17.74000000    43.01000000
   N    103.24000000    18.62000000    37.78000000
   C    103.69000000    18.07000000    36.52000000
   C    104.47000000    16.77000000    36.66000000
   O    104.02000000    15.71000000    37.08000000
   C    102.52000000    17.79000000    35.58000000
   C    101.76000000    19.07000000    35.26000000
   O    102.92000000    17.27000000    34.34000000
   H    102.26000000    18.52000000    37.98000000
   H    104.35000000    18.83000000    36.12000000
   H    101.85000000    17.09000000    36.09000000
   H    102.15000000    17.01000000    33.83000000
   H    102.40000000    19.77000000    34.71000000
   H    100.91000000    18.89000000    34.59000000
   H    101.37000000    19.53000000    36.17000000
   N    105.70000000    16.94000000    36.15000000
   C    106.71000000    15.90000000    36.16000000
   C    107.30000000    15.69000000    37.55000000
   O    108.02000000    14.76000000    37.88000000
   C    107.73000000    16.34000000    35.12000000
   C    108.77000000    15.24000000    34.89000000
   O    108.28000000    17.54000000    35.63000000
   H    105.98000000    17.88000000    35.91000000
   H    106.19000000    14.99000000    35.85000000
   H    107.22000000    16.54000000    34.18000000
   H    108.64000000    17.95000000    34.84000000
   H    108.23000000    14.34000000    35.19000000
   H    109.06000000    15.36000000    33.85000000
   H    109.56000000    15.45000000    35.60000000
   N    107.00000000    16.57000000    38.51000000
   C    107.33000000    16.46000000    39.91000000
   C    106.11000000    16.04000000    40.72000000
   O    104.95000000    16.38000000    40.49000000
   C    107.86000000    17.79000000    40.46000000
   C    108.69000000    17.61000000    41.73000000
   C    108.87000000    18.97000000    42.40000000
   C    109.94000000    18.89000000    43.49000000
   N    109.61000000    17.94000000    44.56000000
   H    106.41000000    17.31000000    38.14000000
   H    108.09000000    15.70000000    40.03000000
   H    106.97000000    18.42000000    40.52000000
   H    108.60000000    18.19000000    39.78000000
   H    109.68000000    17.24000000    41.47000000
   H    108.18000000    16.90000000    42.38000000
   H    107.91000000    19.31000000    42.79000000
   H    109.15000000    19.74000000    41.68000000
   H    109.98000000    19.91000000    43.87000000
   H    110.88000000    18.69000000    42.98000000
   H    110.37000000    17.86000000    45.22000000
   H    108.75000000    18.20000000    45.04000000
   H    109.52000000    17.06000000    44.07000000
   N    106.41000000    15.18000000    41.70000000
   C    105.48000000    14.73000000    42.72000000
   C    105.53000000    13.21000000    42.80000000
   O    106.61000000    12.69000000    43.04000000
   C    105.60000000    15.47000000    44.05000000
   C    104.39000000    15.38000000    44.99000000
   C    104.66000000    15.86000000    46.41000000
   O    105.20000000    16.96000000    46.62000000
   O    104.17000000    15.18000000    47.33000000
   H    107.33000000    14.78000000    41.67000000
   H    104.48000000    14.96000000    42.36000000
   H    105.66000000    16.54000000    43.86000000
   H    106.41000000    14.97000000    44.58000000
   H    104.09000000    14.34000000    45.11000000
   H    103.60000000    16.01000000    44.57000000
   N    104.53000000    12.33000000    42.76000000
   C    103.11000000    12.53000000    42.53000000
   H    102.59600000    12.61300000    43.48700000
   H    102.96000000    13.44500000    41.95600000
   H    102.70800000    11.68200000    41.97500000
   H    104.76000000    11.37000000    42.97000000
  Ca     93.46000000    21.05000000    28.12000000
   O     94.55000000    21.86000000    25.86000000
   H     94.65000000    21.75000000    24.91000000
   H     95.33000000    22.35000000    26.13000000
   O     91.28000000    21.19000000    26.45000000
   H     91.31000000    21.84000000    25.75000000
   H     90.43000000    20.77000000    26.35000000
   O     92.66000000    18.72000000    27.51000000
   H     91.94000000    18.11000000    27.33000000
   H     93.45000000    18.17000000    27.48000000
   O     95.47000000    19.40000000    27.05000000
   H     95.93000000    19.85000000    26.34000000
   H     95.29000000    18.53000000    26.71000000
   O     92.67000000    23.63000000    27.97000000
   H     93.01000000    24.05000000    28.76000000
   H     92.82000000    24.27000000    27.27000000

Ca 1.00



