%chk=loop4.holoCaM.run93.water2.chk
%nprocshared=20
%mem=10GB
%nosave
#b3lyp/svp scf=(tight,noincore,xqc) Test 
#IOP(5/87=12) Density=Current Pop=(MK,readradii) iop(6/33=2) iop(6/42=6)

loop4.holoCaM.run93.water2 

   -3  1 
   C     54.05000000    56.90000000     8.55000000
   C     54.92000000    58.00000000     9.15000000
   O     54.49000000    59.13000000     9.35000000
   H     53.13300000    57.33700000     8.15500000
   H     54.59200000    56.40600000     7.74400000
   H     53.80200000    56.17100000     9.32100000
   N     56.14000000    57.69000000     9.58000000
   C     57.06000000    58.64000000    10.19000000
   C     57.35000000    59.75000000     9.19000000
   O     57.71000000    59.60000000     8.02000000
   C     58.34000000    57.93000000    10.63000000
   C     59.29000000    58.61000000    11.60000000
   O     60.38000000    58.02000000    11.76000000
   O     58.94000000    59.64000000    12.21000000
   H     56.48000000    56.74000000     9.56000000
   H     56.59000000    59.03000000    11.09000000
   H     58.89000000    57.59000000     9.75000000
   H     58.00000000    57.05000000    11.18000000
   N     57.25000000    61.02000000     9.58000000
   C     57.49000000    62.20000000     8.77000000
   C     58.68000000    63.01000000     9.28000000
   O     59.08000000    63.93000000     8.57000000
   C     56.18000000    62.98000000     8.69000000
   C     56.16000000    63.94000000     7.50000000
   C     55.75000000    63.63000000    10.00000000
   C     54.83000000    64.64000000     7.22000000
   H     57.00000000    61.16000000    10.55000000
   H     57.64000000    61.93000000     7.73000000
   H     55.45000000    62.22000000     8.40000000
   H     56.40000000    63.37000000     6.61000000
   H     56.90000000    64.72000000     7.69000000
   H     56.36000000    64.53000000    10.05000000
   H     54.69000000    63.88000000     9.97000000
   H     55.91000000    63.04000000    10.91000000
   H     54.78000000    65.19000000     6.28000000
   H     53.98000000    63.95000000     7.19000000
   H     54.68000000    65.44000000     7.94000000
   N     59.15000000    62.79000000    10.51000000
   C     60.28000000    63.53000000    11.02000000
   C     61.41000000    62.61000000    11.44000000
   O     62.49000000    63.16000000    11.68000000
   C     59.79000000    64.39000000    12.18000000
   C     59.05000000    63.69000000    13.31000000
   O     58.56000000    64.46000000    14.17000000
   O     58.96000000    62.45000000    13.33000000
   H     58.74000000    62.11000000    11.14000000
   H     60.66000000    64.22000000    10.26000000
   H     59.09000000    65.11000000    11.74000000
   H     60.58000000    65.01000000    12.59000000
   N     61.28000000    61.28000000    11.45000000
   C     62.43000000    60.42000000    11.25000000
   C     63.02000000    59.97000000    12.57000000
   O     64.10000000    60.36000000    13.01000000
   H     60.37000000    60.85000000    11.59000000
   H     63.21000000    60.86000000    10.63000000
   H     62.13000000    59.61000000    10.57000000
   N     62.24000000    59.21000000    13.35000000
   C     62.68000000    58.76000000    14.65000000
   C     62.29000000    57.30000000    14.80000000
   O     62.43000000    56.81000000    15.92000000
   C     62.13000000    59.70000000    15.73000000
   C     60.64000000    59.88000000    15.51000000
   O     60.10000000    60.99000000    15.67000000
   O     59.87000000    58.90000000    15.35000000
   H     61.38000000    58.89000000    12.92000000
   H     63.76000000    58.71000000    14.69000000
   H     62.60000000    60.67000000    15.56000000
   H     62.43000000    59.42000000    16.74000000
   N     61.90000000    56.66000000    13.69000000
   C     61.25000000    55.36000000    13.71000000
   C     60.09000000    55.01000000    14.64000000
   O     59.94000000    53.86000000    15.03000000
   H     61.80000000    57.20000000    12.84000000
   H     62.01000000    54.64000000    14.00000000
   H     60.77000000    55.21000000    12.74000000
   N     59.32000000    55.99000000    15.12000000
   C     58.12000000    55.79000000    15.89000000
   C     56.97000000    56.67000000    15.40000000
   O     57.18000000    57.66000000    14.71000000
   C     58.38000000    55.96000000    17.39000000
   C     59.55000000    55.21000000    18.02000000
   C     59.41000000    55.37000000    19.53000000
   N     59.85000000    56.55000000    19.98000000
   O     59.00000000    54.50000000    20.29000000
   H     59.59000000    56.95000000    14.94000000
   H     57.76000000    54.79000000    15.65000000
   H     57.45000000    55.73000000    17.91000000
   H     58.49000000    57.01000000    17.68000000
   H     60.46000000    55.72000000    17.70000000
   H     59.47000000    54.16000000    17.73000000
   H     60.10000000    57.28000000    19.33000000
   H     59.88000000    56.54000000    20.99000000
   N     55.75000000    56.21000000    15.68000000
   C     54.61000000    57.09000000    15.52000000
   C     54.01000000    57.75000000    16.75000000
   O     53.64000000    57.01000000    17.66000000
   C     53.50000000    56.40000000    14.73000000
   C     53.87000000    56.28000000    13.26000000
   C     52.97000000    55.04000000    15.17000000
   H     55.65000000    55.33000000    16.16000000
   H     54.95000000    57.88000000    14.85000000
   H     52.65000000    57.09000000    14.79000000
   H     54.72000000    55.61000000    13.15000000
   H     53.00000000    55.93000000    12.71000000
   H     54.22000000    57.20000000    12.78000000
   H     52.70000000    55.15000000    16.22000000
   H     52.09000000    54.77000000    14.60000000
   H     53.73000000    54.27000000    15.02000000
   N     53.83000000    59.07000000    16.80000000
   C     52.99000000    59.77000000    17.75000000
   C     51.56000000    59.70000000    17.25000000
   O     51.32000000    59.07000000    16.22000000
   C     53.41000000    61.21000000    18.04000000
   C     53.11000000    62.20000000    16.92000000
   N     53.96000000    62.53000000    15.95000000
   O     52.04000000    62.79000000    16.96000000
   H     54.34000000    59.59000000    16.10000000
   H     52.91000000    59.10000000    18.60000000
   H     54.50000000    61.21000000    18.16000000
   H     52.86000000    61.54000000    18.92000000
   H     54.82000000    62.04000000    15.75000000
   H     53.72000000    63.34000000    15.38000000
   N     50.56000000    60.21000000    17.97000000
   C     49.19000000    60.15000000    17.49000000
   C     48.92000000    60.84000000    16.15000000
   O     48.11000000    60.27000000    15.42000000
   C     48.36000000    60.80000000    18.59000000
   C     49.10000000    61.65000000    19.59000000
   C     49.40000000    62.98000000    19.28000000
   C     49.63000000    61.09000000    20.76000000
   C     50.26000000    63.77000000    20.04000000
   C     50.45000000    61.88000000    21.58000000
   C     50.79000000    63.20000000    21.22000000
   O     51.54000000    64.08000000    21.95000000
   H     50.75000000    60.55000000    18.90000000
   H     49.07000000    59.08000000    17.34000000
   H     47.88000000    60.00000000    19.15000000
   H     47.57000000    61.39000000    18.12000000
   H     49.01000000    63.41000000    18.36000000
   H     49.54000000    60.02000000    20.93000000
   H     50.45000000    64.79000000    19.74000000
   H     50.86000000    61.43000000    22.46000000
   H     51.71000000    63.61000000    22.77000000
   N     49.60000000    61.92000000    15.76000000
   C     49.40000000    62.56000000    14.48000000
   C     50.11000000    61.83000000    13.35000000
   O     50.13000000    62.34000000    12.23000000
   C     49.88000000    64.01000000    14.43000000
   C     49.04000000    64.96000000    15.28000000
   C     49.37000000    66.42000000    15.01000000
   O     48.71000000    67.02000000    14.13000000
   O     50.24000000    66.97000000    15.72000000
   H     50.21000000    62.36000000    16.44000000
   H     48.33000000    62.59000000    14.28000000
   H     49.87000000    64.35000000    13.39000000
   H     50.95000000    64.07000000    14.65000000
   H     49.12000000    64.75000000    16.34000000
   H     47.96000000    64.80000000    15.19000000
   N     50.71000000    60.67000000    13.62000000
   C     51.29000000    59.83000000    12.59000000
   C     50.55000000    58.50000000    12.58000000
   O     50.18000000    57.99000000    11.52000000
   C     52.81000000    59.77000000    12.78000000
   C     53.60000000    61.07000000    12.80000000
   C     55.05000000    60.92000000    13.24000000
   O     55.37000000    60.39000000    14.33000000
   O     56.04000000    61.35000000    12.62000000
   H     50.62000000    60.29000000    14.55000000
   H     51.27000000    60.25000000    11.59000000
   H     53.32000000    59.07000000    12.12000000
   H     52.94000000    59.39000000    13.80000000
   H     53.09000000    61.76000000    13.47000000
   H     53.46000000    61.62000000    11.87000000
   N     50.28000000    57.91000000    13.74000000
   C     49.34000000    56.81000000    13.85000000
   H     48.42300000    57.06200000    13.31700000
   H     49.77800000    55.91200000    13.41400000
   H     49.11200000    56.63000000    14.90100000
   H     50.54000000    58.41000000    14.58000000
  Ca     57.91000000    60.24000000    14.41000000
   O     57.43000000    62.61000000    15.80000000
   H     57.02000000    63.06000000    16.53000000
   H     57.70000000    63.31000000    15.21000000
   O     57.64000000    59.68000000    17.07000000
   H     58.50000000    59.32000000    17.31000000
   H     57.68000000    60.59000000    17.37000000

Ca 1.00



