%chk=loop2.apoCaM-CA-Ng.Init295.run96.water2.chk
%nprocshared=20
%mem=10GB
%nosave
#b3lyp/svp scf=(tight,noincore,xqc) Test 
#IOP(5/87=12) Density=Current Pop=(MK,readradii) iop(6/33=2) iop(6/42=6)

loop2.apoCaM-CA-Ng.Init295.run96.water2 

   -2  1 
   C    104.40000000    97.93000000    50.53000000
   C    104.97000000    99.24000000    50.00000000
   O    104.43000000    99.68000000    49.00000000
   H    103.41500000    97.76100000    50.09500000
   H    105.06300000    97.10800000    50.25800000
   H    104.31300000    97.98400000    51.61500000
   N    105.96000000    99.84000000    50.67000000
   C    106.81000000   100.95000000    50.32000000
   C    106.13000000   102.31000000    50.47000000
   O    106.81000000   103.23000000    50.93000000
   C    108.13000000   100.77000000    51.06000000
   C    109.44000000   101.39000000    50.61000000
   O    109.66000000   101.17000000    49.40000000
   O    110.16000000   102.06000000    51.39000000
   H    106.31000000    99.25000000    51.41000000
   H    106.94000000   100.74000000    49.26000000
   H    108.35000000    99.70000000    51.09000000
   H    108.12000000   101.14000000    52.09000000
   N    104.83000000   102.42000000    50.18000000
   C    104.04000000   103.58000000    50.55000000
   C    103.30000000   103.60000000    51.88000000
   O    103.08000000   102.53000000    52.45000000
   C    103.02000000   103.77000000    49.43000000
   H    104.31000000   101.61000000    49.88000000
   H    104.69000000   104.45000000    50.51000000
   H    102.39000000   104.65000000    49.55000000
   H    103.53000000   103.70000000    48.47000000
   H    102.39000000   102.89000000    49.51000000
   N    102.80000000   104.70000000    52.43000000
   C    102.65000000   106.03000000    51.87000000
   C    103.23000000   107.10000000    52.78000000
   O    103.79000000   108.13000000    52.40000000
   C    101.18000000   106.34000000    51.59000000
   C    101.00000000   107.72000000    50.97000000
   O    101.18000000   107.94000000    49.76000000
   O    100.52000000   108.60000000    51.72000000
   H    102.36000000   104.51000000    53.32000000
   H    103.14000000   106.06000000    50.90000000
   H    100.66000000   106.17000000    52.53000000
   H    100.85000000   105.63000000    50.83000000
   N    103.26000000   106.75000000    54.07000000
   C    104.22000000   107.35000000    54.97000000
   C    105.67000000   106.99000000    54.65000000
   O    105.95000000   106.20000000    53.76000000
   H    102.72000000   105.94000000    54.32000000
   H    103.92000000   107.20000000    56.01000000
   H    104.12000000   108.42000000    54.82000000
   N    106.63000000   107.61000000    55.33000000
   C    106.59000000   108.49000000    56.49000000
   C    106.25000000   107.79000000    57.79000000
   O    106.34000000   106.57000000    57.90000000
   C    107.92000000   109.25000000    56.50000000
   C    107.96000000   110.41000000    57.47000000
   N    107.09000000   111.41000000    57.31000000
   O    108.60000000   110.26000000    58.51000000
   H    107.56000000   107.41000000    55.00000000
   H    105.79000000   109.17000000    56.20000000
   H    108.26000000   109.50000000    55.49000000
   H    108.72000000   108.56000000    56.77000000
   H    106.66000000   111.49000000    56.40000000
   H    107.07000000   112.22000000    57.91000000
   N    105.89000000   108.60000000    58.79000000
   C    105.67000000   108.26000000    60.19000000
   C    104.29000000   107.64000000    60.34000000
   O    103.99000000   107.07000000    61.39000000
   H    105.79000000   109.58000000    58.57000000
   H    105.65000000   109.24000000    60.68000000
   H    106.50000000   107.68000000    60.60000000
   N    103.38000000   107.85000000    59.39000000
   C    101.95000000   107.62000000    59.43000000
   C    101.22000000   107.39000000    58.11000000
   O    101.67000000   107.71000000    57.01000000
   C    101.36000000   108.89000000    60.04000000
   C    101.61000000   109.43000000    61.44000000
   O    101.79000000   110.00000000    59.28000000
   H    103.82000000   108.30000000    58.60000000
   H    101.76000000   106.74000000    60.05000000
   H    100.28000000   108.88000000    59.87000000
   H    101.15000000   110.71000000    59.31000000
   H    100.98000000   110.30000000    61.60000000
   H    101.35000000   108.68000000    62.19000000
   H    102.67000000   109.68000000    61.50000000
   N    100.06000000   106.76000000    58.23000000
   C     99.27000000   106.20000000    57.15000000
   C     97.81000000   106.52000000    57.44000000
   O     97.39000000   106.71000000    58.58000000
   C     99.55000000   104.73000000    56.86000000
   C    100.78000000   104.63000000    55.97000000
   C     99.72000000   103.90000000    58.13000000
   C    101.04000000   103.17000000    55.60000000
   H     99.57000000   106.86000000    59.11000000
   H     99.53000000   106.75000000    56.25000000
   H     98.75000000   104.28000000    56.27000000
   H    101.71000000   105.06000000    56.33000000
   H    100.48000000   105.19000000    55.08000000
   H    100.69000000   104.09000000    58.61000000
   H     98.91000000   104.12000000    58.83000000
   H     99.78000000   102.84000000    57.88000000
   H    101.50000000   102.64000000    56.44000000
   H    100.10000000   102.70000000    55.35000000
   H    101.78000000   103.10000000    54.80000000
   N     97.06000000   106.78000000    56.36000000
   C     95.68000000   107.24000000    56.41000000
   C     94.82000000   106.54000000    55.37000000
   O     95.11000000   106.63000000    54.17000000
   C     95.54000000   108.76000000    56.35000000
   C     96.55000000   109.30000000    55.34000000
   O     97.67000000   109.52000000    55.84000000
   O     96.30000000   109.35000000    54.12000000
   H     97.41000000   106.72000000    55.42000000
   H     95.28000000   106.98000000    57.39000000
   H     95.74000000   109.22000000    57.32000000
   H     94.51000000   109.01000000    56.10000000
   N     93.68000000   106.02000000    55.81000000
   C     92.59000000   105.63000000    54.94000000
   C     92.97000000   104.35000000    54.22000000
   O     93.33000000   103.41000000    54.92000000
   C     91.31000000   105.47000000    55.76000000
   C     90.03000000   105.04000000    55.08000000
   C     89.91000000   103.67000000    54.86000000
   C     89.03000000   105.95000000    54.70000000
   C     88.71000000   103.18000000    54.32000000
   C     87.81000000   105.45000000    54.23000000
   C     87.69000000   104.08000000    53.98000000
   H     93.49000000   106.09000000    56.80000000
   H     92.44000000   106.41000000    54.19000000
   H     91.13000000   106.45000000    56.21000000
   H     91.59000000   104.76000000    56.53000000
   H     90.66000000   103.00000000    55.25000000
   H     89.03000000   107.00000000    54.96000000
   H     88.54000000   102.11000000    54.29000000
   H     86.97000000   106.10000000    54.03000000
   H     86.82000000   103.74000000    53.44000000
   N     92.82000000   104.25000000    52.89000000
   C     93.23000000   103.10000000    52.10000000
   C     94.68000000   102.65000000    52.16000000
   O     95.05000000   101.55000000    51.73000000
   C     92.81000000   103.31000000    50.65000000
   C     91.70000000   104.34000000    50.79000000
   C     91.99000000   105.10000000    52.08000000
   H     92.85000000   102.19000000    52.57000000
   H     93.56000000   103.80000000    50.03000000
   H     92.57000000   102.36000000    50.17000000
   H     91.62000000   105.02000000    49.94000000
   H     90.78000000   103.76000000    50.90000000
   H     92.59000000   105.96000000    51.77000000
   H     91.08000000   105.49000000    52.54000000
   N     95.57000000   103.35000000    52.86000000
   C     96.89000000   102.92000000    53.25000000
   C     96.92000000   101.90000000    54.38000000
   O     97.88000000   101.15000000    54.50000000
   C     97.60000000   104.22000000    53.64000000
   C     97.84000000   105.17000000    52.47000000
   C     98.06000000   106.63000000    52.83000000
   O     97.61000000   107.52000000    52.08000000
   O     98.57000000   107.00000000    53.91000000
   H     95.26000000   104.24000000    53.24000000
   H     97.45000000   102.49000000    52.41000000
   H     98.57000000   103.99000000    54.07000000
   H     97.07000000   104.75000000    54.44000000
   H     96.90000000   105.22000000    51.92000000
   H     98.62000000   104.79000000    51.83000000
   N     95.90000000   101.85000000    55.23000000
   C     95.60000000   100.75000000    56.12000000
   H     94.58900000   100.39200000    55.92600000
   H     96.31000000    99.94100000    55.95100000
   H     95.67300000   101.08800000    57.15400000
   H     95.22000000   102.59000000    55.09000000
  Ca     99.05000000   109.56500000    53.61000000
   O     97.31000000   110.55500000    51.61000000
   H     97.65000000   110.57500000    50.71000000
   H     96.96000000   111.43500000    51.75000000
   O    101.40500000   109.54500000    54.86000000
   H    102.08500000   110.15500000    55.16000000
   H    101.59500000   108.73500000    55.32000000

Ca 1.00



