%chk=loop1.apoCaM-CA-Ng.Init293.run23.water4.chk
%nprocshared=20
%mem=10GB
%nosave
#b3lyp/svp scf=(tight,noincore,xqc) Test 
#IOP(5/87=12) Density=Current Pop=(MK,readradii) iop(6/33=2) iop(6/42=6)

loop1.apoCaM-CA-Ng.Init293.run23.water4 

   0  1 
   C     57.73000000    80.87000000    35.73000000
   C     58.04000000    79.39000000    35.58000000
   O     57.54000000    78.69000000    34.70000000
   H     56.77100000    80.99100000    36.23400000
   H     58.51200000    81.34800000    36.32000000
   H     57.68200000    81.33400000    34.74500000
   N     58.87000000    78.91000000    36.50000000
   C     59.30000000    77.53000000    36.61000000
   C     58.36000000    76.72000000    37.48000000
   O     58.62000000    75.52000000    37.63000000
   C     60.78000000    77.47000000    37.00000000
   C     60.90000000    78.09000000    38.39000000
   O     60.93000000    77.34000000    39.39000000
   O     61.08000000    79.33000000    38.50000000
   H     59.27000000    79.57000000    37.16000000
   H     59.38000000    77.00000000    35.66000000
   H     61.24000000    78.10000000    36.24000000
   H     61.10000000    76.43000000    37.01000000
   N     57.20000000    77.24000000    37.88000000
   C     56.36000000    76.64000000    38.89000000
   C     54.93000000    76.42000000    38.41000000
   O     54.13000000    77.34000000    38.51000000
   C     56.54000000    77.43000000    40.19000000
   C     57.98000000    77.73000000    40.58000000
   C     58.15000000    78.49000000    41.89000000
   C     59.58000000    78.78000000    42.32000000
   N     60.43000000    79.49000000    41.34000000
   H     57.01000000    78.18000000    37.57000000
   H     56.85000000    75.68000000    39.06000000
   H     56.07000000    76.92000000    41.03000000
   H     56.04000000    78.39000000    40.12000000
   H     58.36000000    78.42000000    39.82000000
   H     58.52000000    76.78000000    40.63000000
   H     57.63000000    77.87000000    42.63000000
   H     57.58000000    79.42000000    41.77000000
   H     60.03000000    77.83000000    42.59000000
   H     59.49000000    79.48000000    43.15000000
   H     61.35000000    79.56000000    41.74000000
   H     60.47000000    79.07000000    40.42000000
   H     60.15000000    80.43000000    41.10000000
   N     54.47000000    75.25000000    37.94000000
   C     55.16000000    74.04000000    37.56000000
   C     55.85000000    73.20000000    38.62000000
   O     56.20000000    73.58000000    39.73000000
   C     55.85000000    74.26000000    36.22000000
   C     55.08000000    74.78000000    35.02000000
   O     55.67000000    75.47000000    34.16000000
   O     53.84000000    74.66000000    34.92000000
   H     53.50000000    75.29000000    37.64000000
   H     54.26000000    73.49000000    37.29000000
   H     56.29000000    73.30000000    35.96000000
   H     56.68000000    74.95000000    36.36000000
   N     56.07000000    71.90000000    38.41000000
   C     55.68000000    71.09000000    37.27000000
   C     56.46000000    69.78000000    37.18000000
   O     56.53000000    69.07000000    38.18000000
   H     56.41000000    71.35000000    39.19000000
   H     55.59000000    71.52000000    36.28000000
   H     54.68000000    70.70000000    37.49000000
   N     57.17000000    69.40000000    36.11000000
   C     57.34000000    70.13000000    34.87000000
   C     58.01000000    71.49000000    34.99000000
   O     57.75000000    72.36000000    34.16000000
   C     58.03000000    69.35000000    33.75000000
   C     59.41000000    68.81000000    34.11000000
   O     60.40000000    69.57000000    34.00000000
   O     59.51000000    67.59000000    34.32000000
   H     57.64000000    68.51000000    36.09000000
   H     56.33000000    70.26000000    34.49000000
   H     58.12000000    69.96000000    32.85000000
   H     57.39000000    68.53000000    33.44000000
   N     58.89000000    71.58000000    35.99000000
   C     59.67000000    72.75000000    36.36000000
   C     60.77000000    73.11000000    35.37000000
   O     61.50000000    74.03000000    35.73000000
   H     59.00000000    70.84000000    36.66000000
   H     60.16000000    72.62000000    37.32000000
   H     59.05000000    73.65000000    36.30000000
   N     60.86000000    72.51000000    34.18000000
   C     61.68000000    72.97000000    33.08000000
   C     61.01000000    74.19000000    32.45000000
   O     59.80000000    74.39000000    32.55000000
   C     62.00000000    71.89000000    32.05000000
   C     62.78000000    72.41000000    30.85000000
   O     60.94000000    71.01000000    31.76000000
   H     60.52000000    71.56000000    34.22000000
   H     62.63000000    73.29000000    33.52000000
   H     62.77000000    71.32000000    32.57000000
   H     60.95000000    70.36000000    32.46000000
   H     62.12000000    73.01000000    30.23000000
   H     63.74000000    72.85000000    31.09000000
   H     62.92000000    71.44000000    30.38000000
   N     61.81000000    75.08000000    31.87000000
   C     61.46000000    76.37000000    31.30000000
   C     62.43000000    76.63000000    30.15000000
   O     63.42000000    77.34000000    30.31000000
   C     61.44000000    77.42000000    32.40000000
   C     61.19000000    78.83000000    31.87000000
   C     62.54000000    77.37000000    33.45000000
   C     60.70000000    79.80000000    32.94000000
   H     62.80000000    74.96000000    32.02000000
   H     60.44000000    76.27000000    30.92000000
   H     60.55000000    77.08000000    32.93000000
   H     60.40000000    78.82000000    31.12000000
   H     62.12000000    79.21000000    31.46000000
   H     62.68000000    78.36000000    33.88000000
   H     62.51000000    76.63000000    34.25000000
   H     63.52000000    77.30000000    32.98000000
   H     60.41000000    80.77000000    32.53000000
   H     59.78000000    79.41000000    33.38000000
   H     61.48000000    79.97000000    33.68000000
   N     62.05000000    76.13000000    28.97000000
   C     62.75000000    76.25000000    27.71000000
   C     61.86000000    76.93000000    26.69000000
   O     62.34000000    77.40000000    25.66000000
   C     63.27000000    74.90000000    27.21000000
   C     62.36000000    74.04000000    26.34000000
   O     63.68000000    74.09000000    28.28000000
   H     61.32000000    75.43000000    29.04000000
   H     63.60000000    76.92000000    27.88000000
   H     64.14000000    75.07000000    26.57000000
   H     64.62000000    74.27000000    28.31000000
   H     62.87000000    73.08000000    26.31000000
   H     61.40000000    73.87000000    26.84000000
   H     62.19000000    74.39000000    25.32000000
   N     60.55000000    77.05000000    26.93000000
   C     59.48000000    77.48000000    26.06000000
   C     59.22000000    76.54000000    24.90000000
   O     60.07000000    75.71000000    24.61000000
   C     59.58000000    78.97000000    25.71000000
   C     59.40000000    79.81000000    26.97000000
   O     58.49000000    79.21000000    24.86000000
   H     60.21000000    76.74000000    27.83000000
   H     58.59000000    77.40000000    26.69000000
   H     60.60000000    79.16000000    25.37000000
   H     58.53000000    80.16000000    24.71000000
   H     58.43000000    79.60000000    27.42000000
   H     60.27000000    79.65000000    27.62000000
   H     59.43000000    80.85000000    26.68000000
   N     57.98000000    76.47000000    24.40000000
   C     57.57000000    75.43000000    23.48000000
   C     56.52000000    74.40000000    23.90000000
   O     56.57000000    73.34000000    23.29000000
   C     57.15000000    76.02000000    22.14000000
   C     58.23000000    76.83000000    21.41000000
   C     59.26000000    76.16000000    20.51000000
   C     60.18000000    77.12000000    19.76000000
   N     59.66000000    77.85000000    18.59000000
   H     57.31000000    77.19000000    24.64000000
   H     58.40000000    74.78000000    23.22000000
   H     56.37000000    76.75000000    22.34000000
   H     56.77000000    75.29000000    21.42000000
   H     58.79000000    77.49000000    22.08000000
   H     57.58000000    77.35000000    20.70000000
   H     58.74000000    75.61000000    19.73000000
   H     59.85000000    75.46000000    21.10000000
   H     61.00000000    76.56000000    19.32000000
   H     60.61000000    77.81000000    20.49000000
   H     60.36000000    78.48000000    18.22000000
   H     59.41000000    77.18000000    17.87000000
   H     58.86000000    78.40000000    18.86000000
   N     55.59000000    74.52000000    24.85000000
   C     55.14000000    75.62000000    25.67000000
   C     54.95000000    76.94000000    24.95000000
   O     55.51000000    77.94000000    25.41000000
   C     55.96000000    75.58000000    26.96000000
   C     55.66000000    74.37000000    27.83000000
   C     56.22000000    74.43000000    29.25000000
   O     56.93000000    75.36000000    29.68000000
   O     56.09000000    73.42000000    29.97000000
   H     55.18000000    73.65000000    25.17000000
   H     54.08000000    75.42000000    25.88000000
   H     55.61000000    76.38000000    27.60000000
   H     57.02000000    75.50000000    26.70000000
   H     56.03000000    73.50000000    27.29000000
   H     54.57000000    74.29000000    27.89000000
   N     54.11000000    77.01000000    23.91000000
   C     53.57000000    78.19000000    23.28000000
   H     52.64400000    78.47600000    23.77900000
   H     54.29000000    79.00500000    23.35600000
   H     53.36600000    77.98100000    22.23000000
   H     53.68000000    76.12000000    23.69000000
  Ca     57.06000000    74.22000000    32.26000000
   O     58.39000000    72.09000000    31.20000000
   H     59.28000000    71.80000000    31.37000000
   H     58.00000000    71.39000000    30.67000000
   O     57.58000000    76.85000000    32.44000000
   H     57.78000000    77.30000000    31.61000000
   H     57.78000000    77.50000000    33.11000000
   O     54.34000000    75.65000000    31.67000000
   H     53.62000000    76.29000000    31.66000000
   H     54.51000000    75.50000000    32.60000000
   O     55.10000000    72.40000000    32.74000000
   H     54.24000000    72.59000000    33.11000000
   H     55.21000000    71.46000000    32.84000000

Ca 1.00



