%chk=loop4.apoCaM-CA-Ng.Init295.run17.water4.chk
%nprocshared=20
%mem=10GB
%nosave
#b3lyp/svp scf=(tight,noincore,xqc) Test 
#IOP(5/87=12) Density=Current Pop=(MK,readradii) iop(6/33=2) iop(6/42=6)

loop4.apoCaM-CA-Ng.Init295.run17.water4 

   -3  1 
   C    102.62000000    26.64000000    65.09000000
   C    104.12000000    26.87000000    65.00000000
   O    104.45000000    27.28000000    63.89000000
   H    102.11100000    27.28400000    64.37300000
   H    102.39700000    25.59700000    64.86300000
   H    102.27600000    26.87500000    66.09700000
   N    105.01000000    26.52000000    65.94000000
   C    106.43000000    26.76000000    65.89000000
   C    106.81000000    28.21000000    65.61000000
   O    107.56000000    28.51000000    64.68000000
   C    107.13000000    25.82000000    64.91000000
   C    106.51000000    24.43000000    64.78000000
   O    105.86000000    24.20000000    63.74000000
   O    106.69000000    23.55000000    65.65000000
   H    104.67000000    26.19000000    66.83000000
   H    106.89000000    26.53000000    66.85000000
   H    108.16000000    25.70000000    65.25000000
   H    107.18000000    26.31000000    63.94000000
   N    106.26000000    29.14000000    66.38000000
   C    106.55000000    30.56000000    66.45000000
   C    106.91000000    30.81000000    67.90000000
   O    106.10000000    30.64000000    68.81000000
   C    105.40000000    31.42000000    65.94000000
   C    105.23000000    31.21000000    64.44000000
   C    105.48000000    32.91000000    66.28000000
   C    103.83000000    31.42000000    63.87000000
   H    105.78000000    28.79000000    67.20000000
   H    107.41000000    30.69000000    65.79000000
   H    104.54000000    30.96000000    66.42000000
   H    105.60000000    30.22000000    64.14000000
   H    105.87000000    31.91000000    63.90000000
   H    106.39000000    33.20000000    65.75000000
   H    104.58000000    33.46000000    66.02000000
   H    105.69000000    33.11000000    67.33000000
   H    103.76000000    31.51000000    62.79000000
   H    103.21000000    30.60000000    64.23000000
   H    103.52000000    32.41000000    64.23000000
   N    108.09000000    31.33000000    68.26000000
   C    109.20000000    31.62000000    67.38000000
   C    109.91000000    30.36000000    66.89000000
   O    110.52000000    30.42000000    65.83000000
   C    110.12000000    32.62000000    68.08000000
   C    109.41000000    33.94000000    68.34000000
   O    109.33000000    34.87000000    67.51000000
   O    108.91000000    34.14000000    69.47000000
   H    108.24000000    31.49000000    69.25000000
   H    108.91000000    32.08000000    66.43000000
   H    111.00000000    32.86000000    67.49000000
   H    110.49000000    32.33000000    69.06000000
   N    109.79000000    29.24000000    67.60000000
   C    110.38000000    27.97000000    67.21000000
   C    111.89000000    27.97000000    67.06000000
   O    112.62000000    28.50000000    67.89000000
   H    109.34000000    29.31000000    68.50000000
   H    109.97000000    27.72000000    66.23000000
   H    110.03000000    27.24000000    67.94000000
   N    112.31000000    27.37000000    65.94000000
   C    113.66000000    27.47000000    65.44000000
   C    113.74000000    28.19000000    64.10000000
   O    114.85000000    28.34000000    63.59000000
   C    114.34000000    26.11000000    65.51000000
   C    113.75000000    25.02000000    64.61000000
   O    112.66000000    25.23000000    64.03000000
   O    114.38000000    23.95000000    64.53000000
   H    111.65000000    26.85000000    65.37000000
   H    114.27000000    28.01000000    66.17000000
   H    114.28000000    25.64000000    66.49000000
   H    115.40000000    26.23000000    65.32000000
   N    112.61000000    28.66000000    63.58000000
   C    112.49000000    29.22000000    62.25000000
   C    112.63000000    28.23000000    61.10000000
   O    112.76000000    28.70000000    59.97000000
   H    111.75000000    28.54000000    64.10000000
   H    113.17000000    30.03000000    61.98000000
   H    111.45000000    29.53000000    62.14000000
   N    112.52000000    26.94000000    61.42000000
   C    112.63000000    25.80000000    60.53000000
   C    111.67000000    25.83000000    59.36000000
   O    111.94000000    26.35000000    58.28000000
   C    114.05000000    25.54000000    60.03000000
   C    115.11000000    25.55000000    61.12000000
   C    116.47000000    25.11000000    60.59000000
   N    117.53000000    25.28000000    61.39000000
   O    116.67000000    24.85000000    59.41000000
   H    112.28000000    26.72000000    62.37000000
   H    112.40000000    24.92000000    61.13000000
   H    114.30000000    26.35000000    59.33000000
   H    114.05000000    24.54000000    59.61000000
   H    114.67000000    25.06000000    61.98000000
   H    115.24000000    26.59000000    61.44000000
   H    117.38000000    25.44000000    62.38000000
   H    118.47000000    25.08000000    61.08000000
   N    110.50000000    25.22000000    59.53000000
   C    109.36000000    25.24000000    58.63000000
   C    108.97000000    23.85000000    58.15000000
   O    109.06000000    22.89000000    58.92000000
   C    108.05000000    25.78000000    59.20000000
   C    107.78000000    25.48000000    60.67000000
   C    108.00000000    27.28000000    58.91000000
   H    110.36000000    24.76000000    60.42000000
   H    109.59000000    25.73000000    57.69000000
   H    107.21000000    25.38000000    58.64000000
   H    106.72000000    25.61000000    60.87000000
   H    108.07000000    24.46000000    60.93000000
   H    108.40000000    26.15000000    61.26000000
   H    106.96000000    27.62000000    58.86000000
   H    108.46000000    27.75000000    59.78000000
   H    108.52000000    27.44000000    57.97000000
   N    108.46000000    23.68000000    56.92000000
   C    107.98000000    22.43000000    56.37000000
   C    106.61000000    21.97000000    56.87000000
   O    105.86000000    22.83000000    57.33000000
   C    108.07000000    22.41000000    54.85000000
   C    107.78000000    21.05000000    54.23000000
   N    108.43000000    19.96000000    54.64000000
   O    106.91000000    20.91000000    53.37000000
   H    108.42000000    24.47000000    56.30000000
   H    108.67000000    21.67000000    56.74000000
   H    109.06000000    22.64000000    54.46000000
   H    107.39000000    23.18000000    54.51000000
   H    109.09000000    20.05000000    55.39000000
   H    108.21000000    19.07000000    54.21000000
   N    106.31000000    20.67000000    56.85000000
   C    105.02000000    20.08000000    57.15000000
   C    105.05000000    19.10000000    58.31000000
   O    106.00000000    18.32000000    58.33000000
   C    104.56000000    19.47000000    55.83000000
   C    103.15000000    18.94000000    55.84000000
   C    102.07000000    19.83000000    55.99000000
   C    102.98000000    17.56000000    55.94000000
   C    100.77000000    19.34000000    56.13000000
   C    101.69000000    17.10000000    56.24000000
   C    100.56000000    17.95000000    56.21000000
   O     99.30000000    17.43000000    56.27000000
   H    107.02000000    20.01000000    56.57000000
   H    104.29000000    20.85000000    57.42000000
   H    105.27000000    18.72000000    55.48000000
   H    104.55000000    20.21000000    55.03000000
   H    102.17000000    20.89000000    55.82000000
   H    103.83000000    16.92000000    55.74000000
   H     99.97000000    20.04000000    56.26000000
   H    101.54000000    16.03000000    56.23000000
   H     99.26000000    16.47000000    56.19000000
   N    104.06000000    19.19000000    59.21000000
   C    103.80000000    18.22000000    60.25000000
   C    102.37000000    17.70000000    60.18000000
   O    102.27000000    16.48000000    60.01000000
   C    104.04000000    18.78000000    61.65000000
   C    105.52000000    18.97000000    61.98000000
   C    105.60000000    19.66000000    63.33000000
   O    106.31000000    20.67000000    63.53000000
   O    104.68000000    19.44000000    64.16000000
   H    103.48000000    20.01000000    59.07000000
   H    104.47000000    17.38000000    60.12000000
   H    103.67000000    17.98000000    62.29000000
   H    103.53000000    19.70000000    61.91000000
   H    106.07000000    19.49000000    61.19000000
   H    105.94000000    17.97000000    62.08000000
   N    101.30000000    18.48000000    60.29000000
   C    101.15000000    19.87000000    60.67000000
   C    100.01000000    20.56000000    59.93000000
   O     99.20000000    19.94000000    59.26000000
   C    100.80000000    19.95000000    62.15000000
   C     99.49000000    19.26000000    62.55000000
   C     99.59000000    17.74000000    62.56000000
   O     98.95000000    17.02000000    61.77000000
   O    100.32000000    17.17000000    63.40000000
   H    100.46000000    17.91000000    60.31000000
   H    102.06000000    20.43000000    60.45000000
   H    100.81000000    21.00000000    62.41000000
   H    101.53000000    19.46000000    62.79000000
   H     98.66000000    19.57000000    61.91000000
   H     99.24000000    19.59000000    63.55000000
   N     99.96000000    21.89000000    60.11000000
   C     98.96000000    22.78000000    59.56000000
   H     98.08700000    22.79300000    60.21300000
   H     99.37100000    23.78700000    59.48400000
   H     98.66700000    22.43100000    58.57000000
   H    100.55000000    22.34000000    60.79000000
  Ca    104.92300000    21.61000000    65.68000000
   O    107.17300000    20.37000000    66.31000000
   H    107.55300000    19.82000000    65.63000000
   H    107.65300000    20.13000000    67.11000000
   O    104.69300000    19.65000000    67.65000000
   H    103.86300000    20.13000000    67.59000000
   H    104.45300000    18.81000000    68.04000000
   O    102.92300000    21.86000000    63.82000000
   H    102.44300000    22.57000000    64.23000000
   H    102.94300000    22.08000000    62.89000000
   O    104.96300000    22.85000000    68.10000000
   H    105.86300000    22.78000000    68.42000000
   H    104.63300000    23.66000000    68.50000000

Ca 1.00



