%chk=loop2.apoCaM-CA-Ng.Init31.run42.water4.chk
%nprocshared=20
%mem=10GB
%nosave
#b3lyp/svp scf=(tight,noincore,xqc) Test 
#IOP(5/87=12) Density=Current Pop=(MK,readradii) iop(6/33=2) iop(6/42=6)

loop2.apoCaM-CA-Ng.Init31.run42.water4 

   -2  1 
   C    112.40000000    68.40000000    -0.26000000
   C    110.94000000    68.82000000    -0.15000000
   O    110.12000000    67.91000000    -0.20000000
   H    113.00700000    69.02300000     0.39700000
   H    112.50100000    67.35600000     0.03500000
   H    112.73700000    68.52200000    -1.28900000
   N    110.52000000    70.09000000    -0.11000000
   C    111.30000000    71.31000000    -0.03000000
   C    110.86000000    72.32000000    -1.08000000
   O    109.67000000    72.63000000    -1.12000000
   C    111.22000000    71.93000000     1.36000000
   C    109.94000000    72.05000000     2.17000000
   O    108.80000000    72.30000000     1.72000000
   O    110.07000000    71.87000000     3.40000000
   H    109.56000000    70.33000000    -0.31000000
   H    112.33000000    71.10000000    -0.32000000
   H    111.70000000    72.90000000     1.24000000
   H    111.85000000    71.29000000     1.98000000
   N    111.85000000    72.91000000    -1.75000000
   C    111.71000000    73.95000000    -2.75000000
   C    111.32000000    75.34000000    -2.28000000
   O    111.93000000    76.32000000    -2.71000000
   C    110.69000000    73.55000000    -3.80000000
   H    112.83000000    72.70000000    -1.58000000
   H    112.67000000    73.90000000    -3.27000000
   H    110.79000000    74.14000000    -4.71000000
   H    110.82000000    72.52000000    -4.12000000
   H    109.68000000    73.65000000    -3.41000000
   N    110.32000000    75.41000000    -1.39000000
   C    109.70000000    76.57000000    -0.79000000
   C    108.97000000    76.27000000     0.51000000
   O    108.68000000    75.12000000     0.84000000
   C    108.67000000    77.16000000    -1.76000000
   C    107.68000000    76.10000000    -2.21000000
   O    107.66000000    74.90000000    -1.85000000
   O    106.89000000    76.56000000    -3.06000000
   H    109.83000000    74.55000000    -1.21000000
   H    110.50000000    77.27000000    -0.52000000
   H    109.06000000    77.68000000    -2.63000000
   H    108.14000000    77.93000000    -1.20000000
   N    108.64000000    77.30000000     1.29000000
   C    107.58000000    77.14000000     2.27000000
   C    106.24000000    77.65000000     1.75000000
   O    106.18000000    78.55000000     0.91000000
   H    108.90000000    78.25000000     1.09000000
   H    107.80000000    77.79000000     3.11000000
   H    107.46000000    76.09000000     2.54000000
   N    105.20000000    77.11000000     2.38000000
   C    103.82000000    77.20000000     1.93000000
   C    102.84000000    77.39000000     3.08000000
   O    103.11000000    76.90000000     4.17000000
   C    103.44000000    76.08000000     0.97000000
   C    104.47000000    75.73000000    -0.09000000
   N    104.24000000    76.14000000    -1.34000000
   O    105.45000000    75.02000000     0.14000000
   H    105.37000000    76.45000000     3.12000000
   H    103.59000000    78.04000000     1.29000000
   H    102.52000000    76.30000000     0.43000000
   H    103.33000000    75.22000000     1.63000000
   H    103.43000000    76.73000000    -1.49000000
   H    104.98000000    76.08000000    -2.02000000
   N    101.72000000    78.10000000     2.90000000
   C    100.81000000    78.26000000     4.02000000
   C     99.40000000    78.69000000     3.66000000
   O     99.07000000    79.08000000     2.54000000
   H    101.52000000    78.71000000     2.12000000
   H    101.26000000    79.01000000     4.66000000
   H    100.82000000    77.41000000     4.69000000
   N     98.46000000    78.46000000     4.58000000
   C     98.58000000    78.01000000     5.95000000
   C     98.62000000    76.49000000     6.07000000
   O     99.31000000    76.03000000     6.98000000
   C     97.47000000    78.62000000     6.80000000
   C     97.72000000    80.09000000     7.17000000
   O     96.23000000    78.51000000     6.14000000
   H     97.52000000    78.74000000     4.34000000
   H     99.57000000    78.30000000     6.32000000
   H     97.44000000    78.13000000     7.78000000
   H     95.66000000    79.28000000     6.25000000
   H     97.73000000    80.73000000     6.29000000
   H     96.92000000    80.34000000     7.85000000
   H     98.63000000    80.17000000     7.76000000
   N     98.12000000    75.75000000     5.08000000
   C     97.96000000    74.31000000     5.00000000
   C     96.96000000    73.91000000     6.08000000
   O     97.34000000    73.76000000     7.24000000
   C     99.31000000    73.59000000     5.07000000
   C    100.44000000    74.13000000     4.19000000
   C     99.08000000    72.09000000     4.89000000
   C    100.12000000    74.36000000     2.72000000
   H     97.60000000    76.18000000     4.33000000
   H     97.52000000    74.12000000     4.03000000
   H     99.60000000    73.69000000     6.12000000
   H    101.29000000    73.45000000     4.31000000
   H    100.78000000    75.07000000     4.61000000
   H    100.04000000    71.58000000     4.95000000
   H     98.45000000    71.72000000     5.70000000
   H     98.55000000    71.91000000     3.96000000
   H    100.99000000    74.63000000     2.13000000
   H     99.64000000    73.50000000     2.25000000
   H     99.51000000    75.26000000     2.61000000
   N     95.66000000    73.78000000     5.82000000
   C     95.00000000    73.74000000     4.53000000
   C     95.40000000    72.42000000     3.90000000
   O     95.63000000    72.32000000     2.69000000
   C     93.48000000    73.79000000     4.65000000
   C     92.84000000    72.84000000     5.66000000
   O     93.45000000    72.17000000     6.53000000
   O     91.59000000    72.88000000     5.67000000
   H     95.19000000    73.44000000     6.64000000
   H     95.33000000    74.50000000     3.82000000
   H     93.13000000    73.62000000     3.64000000
   H     93.33000000    74.86000000     4.81000000
   N     95.30000000    71.32000000     4.65000000
   C     95.52000000    69.96000000     4.22000000
   C     94.22000000    69.33000000     3.73000000
   O     93.21000000    70.03000000     3.81000000
   C     96.11000000    69.31000000     5.47000000
   C     95.09000000    68.97000000     6.54000000
   C     94.93000000    69.94000000     7.54000000
   C     94.29000000    67.83000000     6.61000000
   C     94.13000000    69.78000000     8.67000000
   C     93.54000000    67.59000000     7.78000000
   C     93.46000000    68.55000000     8.79000000
   H     94.86000000    71.48000000     5.55000000
   H     96.17000000    69.96000000     3.34000000
   H     96.84000000    69.98000000     5.91000000
   H     96.60000000    68.36000000     5.25000000
   H     95.45000000    70.89000000     7.53000000
   H     94.45000000    67.03000000     5.91000000
   H     94.01000000    70.46000000     9.49000000
   H     93.12000000    66.62000000     7.98000000
   H     92.79000000    68.29000000     9.60000000
   N     94.13000000    68.09000000     3.26000000
   C     95.17000000    67.12000000     2.96000000
   C     96.13000000    67.60000000     1.88000000
   O     96.02000000    68.74000000     1.43000000
   C     94.57000000    65.76000000     2.61000000
   C     93.10000000    65.88000000     3.00000000
   C     92.88000000    67.39000000     3.06000000
   H     95.70000000    66.93000000     3.89000000
   H     94.57000000    65.56000000     1.54000000
   H     95.07000000    65.00000000     3.21000000
   H     92.43000000    65.43000000     2.27000000
   H     92.98000000    65.51000000     4.02000000
   H     92.46000000    67.86000000     2.17000000
   H     92.25000000    67.69000000     3.90000000
   N     97.11000000    66.78000000     1.48000000
   C     98.08000000    67.09000000     0.46000000
   C     99.56000000    66.86000000     0.74000000
   O    100.36000000    66.82000000    -0.18000000
   C     97.67000000    66.42000000    -0.85000000
   C     96.35000000    66.89000000    -1.45000000
   C     96.44000000    68.19000000    -2.23000000
   O     97.08000000    68.28000000    -3.30000000
   O     95.76000000    69.14000000    -1.79000000
   H     97.27000000    65.92000000     1.99000000
   H     98.05000000    68.17000000     0.30000000
   H     97.55000000    65.37000000    -0.58000000
   H     98.35000000    66.58000000    -1.69000000
   H     95.62000000    67.01000000    -0.64000000
   H     95.90000000    66.12000000    -2.08000000
   N    100.14000000    66.86000000     1.94000000
   C     99.68000000    67.14000000     3.29000000
   H     98.65300000    66.79400000     3.40200000
   H    100.31800000    66.62200000     4.00600000
   H     99.72300000    68.21300000     3.47400000
   H    101.09000000    66.51000000     1.97000000
  Ca    107.14400000    73.10000000     0.00000000
   O    104.53400000    72.15000000     0.27000000
   H    103.85400000    72.34000000    -0.38000000
   H    104.10400000    71.58000000     0.91000000
   O    107.40400000    70.20000000     0.12000000
   H    107.35400000    69.67000000    -0.67000000
   H    107.67400000    69.59000000     0.81000000
   O    106.32400000    73.39000000     2.52000000
   H    105.70400000    73.96000000     2.96000000
   H    107.15400000    73.54000000     2.98000000
   O    107.01400000    71.83000000    -2.46400000
   H    106.85400000    70.90000000    -2.32400000
   H    107.70400000    71.86000000    -3.12400000

Ca 1.00



