%chk=loop2.apoCaM-CA-Ng.Init293.run77.water6.chk
%nprocshared=20
%mem=10GB
%nosave
#b3lyp/svp scf=(tight,noincore,xqc) Test 
#IOP(5/87=12) Density=Current Pop=(MK,readradii) iop(6/33=2) iop(6/42=6)

loop2.apoCaM-CA-Ng.Init293.run77.water6 

   -2  1 
   C     80.18000000    90.59000000    31.92000000
   C     80.99000000    91.88000000    31.87000000
   O     80.44000000    92.94000000    31.60000000
   H     79.23100000    90.73700000    31.40400000
   H     80.73800000    89.79100000    31.43200000
   H     79.99000000    90.32000000    32.95900000
   N     82.30000000    91.73000000    32.10000000
   C     83.21000000    92.85000000    32.17000000
   C     83.14000000    93.69000000    30.91000000
   O     82.98000000    94.91000000    30.95000000
   C     84.63000000    92.30000000    32.27000000
   C     85.52000000    93.51000000    32.51000000
   O     86.14000000    93.91000000    31.49000000
   O     85.59000000    94.05000000    33.63000000
   H     82.60000000    90.76000000    32.15000000
   H     82.96000000    93.52000000    32.99000000
   H     84.87000000    91.74000000    31.37000000
   H     84.63000000    91.72000000    33.20000000
   N     83.29000000    93.06000000    29.74000000
   C     83.55000000    93.70000000    28.46000000
   C     82.42000000    94.66000000    28.13000000
   O     82.69000000    95.59000000    27.38000000
   C     85.00000000    94.17000000    28.43000000
   H     83.55000000    92.09000000    29.79000000
   H     83.49000000    92.90000000    27.73000000
   H     85.57000000    93.40000000    28.95000000
   H     85.25000000    94.26000000    27.37000000
   H     85.17000000    95.09000000    28.99000000
   N     81.24000000    94.42000000    28.71000000
   C     80.07000000    95.21000000    28.39000000
   C     80.21000000    96.71000000    28.61000000
   O     79.53000000    97.51000000    27.97000000
   C     79.44000000    94.74000000    27.08000000
   C     79.43000000    93.24000000    26.84000000
   O     78.36000000    92.61000000    27.00000000
   O     80.40000000    92.71000000    26.27000000
   H     81.13000000    93.54000000    29.19000000
   H     79.33000000    94.96000000    29.15000000
   H     79.99000000    95.21000000    26.27000000
   H     78.45000000    95.15000000    26.87000000
   N     81.15000000    97.15000000    29.45000000
   C     81.34000000    98.51000000    29.91000000
   C     80.19000000    99.11000000    30.70000000
   O     79.41000000    98.38000000    31.31000000
   H     81.75000000    96.44000000    29.84000000
   H     81.54000000    99.04000000    28.97000000
   H     82.28000000    98.59000000    30.46000000
   N     80.06000000   100.43000000    30.55000000
   C     79.00000000   101.24000000    31.14000000
   C     79.12000000   101.28000000    32.65000000
   O     78.17000000   101.63000000    33.34000000
   C     77.62000000   101.05000000    30.54000000
   C     77.42000000   101.28000000    29.04000000
   N     77.93000000   100.41000000    28.17000000
   O     76.88000000   102.30000000    28.61000000
   H     80.86000000   100.93000000    30.19000000
   H     79.34000000   102.26000000    30.93000000
   H     76.89000000   101.67000000    31.05000000
   H     77.21000000   100.07000000    30.79000000
   H     78.31000000    99.51000000    28.44000000
   H     77.72000000   100.55000000    27.19000000
   N     80.25000000   100.78000000    33.18000000
   C     80.37000000   100.56000000    34.60000000
   C     80.10000000    99.15000000    35.10000000
   O     80.49000000    98.80000000    36.21000000
   H     81.04000000   100.75000000    32.55000000
   H     79.72000000   101.28000000    35.10000000
   H     81.39000000   100.78000000    34.94000000
   N     79.47000000    98.37000000    34.22000000
   C     79.29000000    96.96000000    34.48000000
   C     77.86000000    96.47000000    34.32000000
   O     77.14000000    96.92000000    33.43000000
   C     80.19000000    96.10000000    33.60000000
   C     81.65000000    96.48000000    33.79000000
   O     80.08000000    94.72000000    33.87000000
   H     79.24000000    98.71000000    33.29000000
   H     79.57000000    96.69000000    35.50000000
   H     79.93000000    96.29000000    32.55000000
   H     79.97000000    94.25000000    33.04000000
   H     82.25000000    95.76000000    33.23000000
   H     81.91000000    97.49000000    33.47000000
   H     81.87000000    96.41000000    34.86000000
   N     77.48000000    95.45000000    35.09000000
   C     76.24000000    94.71000000    34.93000000
   C     76.01000000    94.38000000    33.46000000
   O     76.85000000    93.79000000    32.79000000
   C     76.26000000    93.42000000    35.74000000
   C     76.14000000    93.79000000    37.21000000
   C     75.18000000    92.45000000    35.27000000
   C     76.68000000    92.81000000    38.25000000
   H     78.11000000    95.20000000    35.83000000
   H     75.35000000    95.27000000    35.23000000
   H     77.23000000    92.97000000    35.55000000
   H     75.12000000    94.09000000    37.45000000
   H     76.82000000    94.63000000    37.30000000
   H     75.37000000    92.06000000    34.27000000
   H     75.09000000    91.58000000    35.93000000
   H     74.17000000    92.86000000    35.34000000
   H     76.58000000    93.23000000    39.26000000
   H     76.08000000    91.89000000    38.24000000
   H     77.72000000    92.68000000    37.98000000
   N     74.88000000    94.82000000    32.91000000
   C     74.50000000    94.53000000    31.54000000
   C     73.60000000    95.54000000    30.83000000
   O     72.41000000    95.32000000    30.62000000
   C     73.89000000    93.13000000    31.59000000
   C     73.36000000    92.68000000    30.24000000
   O     74.07000000    92.89000000    29.23000000
   O     72.32000000    92.00000000    30.15000000
   H     74.21000000    95.44000000    33.33000000
   H     75.40000000    94.38000000    30.94000000
   H     73.11000000    93.25000000    32.34000000
   H     74.57000000    92.37000000    31.97000000
   N     74.16000000    96.73000000    30.60000000
   C     73.40000000    97.93000000    30.33000000
   C     74.05000000    99.13000000    31.00000000
   O     74.38000000   100.16000000    30.42000000
   C     73.13000000    98.12000000    28.84000000
   C     72.08000000    99.15000000    28.48000000
   C     72.47000000   100.42000000    28.03000000
   C     70.72000000    98.83000000    28.57000000
   C     71.53000000   101.36000000    27.60000000
   C     69.79000000    99.80000000    28.19000000
   C     70.17000000   101.05000000    27.68000000
   H     75.17000000    96.72000000    30.63000000
   H     72.41000000    97.77000000    30.75000000
   H     72.83000000    97.14000000    28.46000000
   H     74.09000000    98.31000000    28.36000000
   H     73.50000000   100.66000000    27.82000000
   H     70.52000000    97.83000000    28.92000000
   H     71.83000000   102.27000000    27.10000000
   H     68.76000000    99.48000000    28.28000000
   H     69.39000000   101.74000000    27.37000000
   N     74.22000000    99.17000000    32.33000000
   C     74.13000000    98.15000000    33.35000000
   C     72.77000000    97.49000000    33.55000000
   O     72.72000000    96.30000000    33.84000000
   C     74.71000000    98.73000000    34.64000000
   C     75.65000000    99.85000000    34.21000000
   C     74.92000000   100.28000000    32.94000000
   H     74.81000000    97.35000000    33.06000000
   H     73.88000000    99.07000000    35.25000000
   H     75.23000000    97.96000000    35.21000000
   H     75.76000000   100.75000000    34.82000000
   H     76.61000000    99.45000000    33.87000000
   H     74.11000000   101.00000000    33.06000000
   H     75.69000000   100.69000000    32.29000000
   N     71.66000000    98.24000000    33.60000000
   C     70.35000000    97.89000000    34.09000000
   C     70.38000000    97.26000000    35.48000000
   O     69.70000000    96.25000000    35.70000000
   C     69.51000000    97.13000000    33.07000000
   C     69.25000000    97.94000000    31.80000000
   C     68.32000000    97.19000000    30.85000000
   O     67.26000000    97.78000000    30.55000000
   O     68.52000000    96.13000000    30.22000000
   H     71.78000000    99.22000000    33.37000000
   H     69.80000000    98.83000000    34.21000000
   H     68.57000000    97.00000000    33.60000000
   H     70.00000000    96.18000000    32.86000000
   H     70.21000000    98.08000000    31.31000000
   H     68.77000000    98.87000000    32.11000000
   N     71.08000000    97.85000000    36.44000000
   C     71.08000000    97.32000000    37.78000000
   H     71.71700000    96.43600000    37.82100000
   H     71.46100000    98.07400000    38.46900000
   H     70.06300000    97.04800000    38.06400000
   H     71.55000000    98.73000000    36.24000000
  Ca     76.42000000    91.97000000    28.49000000
   O     75.31000000    92.65000000    26.20000000
   H     75.54000000    93.23000000    25.48000000
   H     74.49000000    92.22000000    25.92000000
   O     75.46000000    89.95000000    30.23000000
   H     75.88000000    89.09000000    30.12000000
   H     74.84000000    89.82000000    30.95000000
   O     77.98000000    92.71000000    30.59000000
   H     77.51000000    93.19000000    31.28000000
   H     78.90000000    92.83000000    30.80000000
   O     75.25000000    89.85000000    27.23000000
   H     74.66000000    89.98000000    26.48000000
   H     75.10000000    88.94000000    27.49000000
   O     78.48000000    90.18000000    28.62000000
   H     78.53000000    89.22000000    28.66000000
   H     79.38000000    90.48000000    28.76000000
   O     76.67000000    94.74000000    28.75000000
   H     76.44000000    95.43000000    28.13000000
   H     77.02000000    95.21000000    29.51000000

Ca 1.00



