%chk=loop3.apoCaM-CA-Ng.Init295.run36.water3.chk
%nprocshared=20
%mem=10GB
%nosave
#b3lyp/svp scf=(tight,noincore,xqc) Test 
#IOP(5/87=12) Density=Current Pop=(MK,readradii) iop(6/33=2) iop(6/42=6)

loop3.apoCaM-CA-Ng.Init295.run36.water3 

   0  1 
   C    102.32000000    35.36000000    63.61000000
   C    102.95000000    35.06000000    64.96000000
   O    102.87000000    35.89000000    65.87000000
   H    101.42700000    35.96800000    63.75400000
   H    103.03200000    35.90300000    62.98900000
   H    102.04800000    34.42500000    63.12000000
   N    103.46000000    33.83000000    65.11000000
   C    103.76000000    33.19000000    66.38000000
   C    105.16000000    32.62000000    66.51000000
   O    105.70000000    32.04000000    65.58000000
   C    102.65000000    32.17000000    66.62000000
   C    102.65000000    31.54000000    68.01000000
   O    101.68000000    31.78000000    68.76000000
   O    103.59000000    30.85000000    68.46000000
   H    103.44000000    33.29000000    64.26000000
   H    103.71000000    33.98000000    67.13000000
   H    102.61000000    31.36000000    65.89000000
   H    101.71000000    32.69000000    66.49000000
   N    105.73000000    32.70000000    67.72000000
   C    107.01000000    32.19000000    68.16000000
   C    107.23000000    30.68000000    68.06000000
   O    108.37000000    30.28000000    67.82000000
   C    107.21000000    32.80000000    69.55000000
   C    108.60000000    32.66000000    70.16000000
   C    108.67000000    33.12000000    71.61000000
   C    110.09000000    33.29000000    72.13000000
   N    110.54000000    34.60000000    71.63000000
   H    105.20000000    33.22000000    68.41000000
   H    107.74000000    32.70000000    67.54000000
   H    106.40000000    32.45000000    70.19000000
   H    107.24000000    33.87000000    69.38000000
   H    109.36000000    33.19000000    69.58000000
   H    109.00000000    31.64000000    70.07000000
   H    108.23000000    32.34000000    72.23000000
   H    108.11000000    34.03000000    71.83000000
   H    110.70000000    32.48000000    71.72000000
   H    110.04000000    33.19000000    73.21000000
   H    111.35000000    34.84000000    72.18000000
   H    110.90000000    34.64000000    70.69000000
   H    109.86000000    35.34000000    71.72000000
   N    106.12000000    29.95000000    68.18000000
   C    106.04000000    28.52000000    67.94000000
   C    105.17000000    28.09000000    66.77000000
   O    104.96000000    26.89000000    66.66000000
   C    105.77000000    27.79000000    69.25000000
   C    104.51000000    28.25000000    69.98000000
   O    103.35000000    28.15000000    69.51000000
   O    104.63000000    28.64000000    71.16000000
   H    105.31000000    30.54000000    68.32000000
   H    107.02000000    28.16000000    67.63000000
   H    106.60000000    27.95000000    69.93000000
   H    105.71000000    26.70000000    69.16000000
   N    104.79000000    28.99000000    65.86000000
   C    103.78000000    28.74000000    64.85000000
   C    102.34000000    28.49000000    65.27000000
   O    101.41000000    28.96000000    64.61000000
   H    105.07000000    29.95000000    66.00000000
   H    104.07000000    27.84000000    64.31000000
   H    103.75000000    29.56000000    64.13000000
   N    102.10000000    27.92000000    66.46000000
   C    100.79000000    27.49000000    66.90000000
   C    100.02000000    28.60000000    67.61000000
   O    100.51000000    29.18000000    68.58000000
   C    100.90000000    26.26000000    67.79000000
   C     99.50000000    25.74000000    68.10000000
   N     99.51000000    25.06000000    69.24000000
   O     98.53000000    25.81000000    67.35000000
   H    102.89000000    27.71000000    67.05000000
   H    100.26000000    27.35000000    65.95000000
   H    101.50000000    26.62000000    68.63000000
   H    101.49000000    25.46000000    67.34000000
   H    100.38000000    24.90000000    69.73000000
   H     98.70000000    24.45000000    69.32000000
   N     98.76000000    28.87000000    67.30000000
   C     97.89000000    30.00000000    67.56000000
   C     97.36000000    30.21000000    68.97000000
   O     96.38000000    30.92000000    69.21000000
   H     98.49000000    28.28000000    66.52000000
   H     97.10000000    30.11000000    66.83000000
   H     98.44000000    30.92000000    67.34000000
   N     97.93000000    29.40000000    69.87000000
   C     97.56000000    29.59000000    71.26000000
   C     98.51000000    30.55000000    71.96000000
   O     99.69000000    30.58000000    71.60000000
   C     97.65000000    28.23000000    71.94000000
   C     96.58000000    27.28000000    71.47000000
   C     95.54000000    27.05000000    72.38000000
   C     96.47000000    26.66000000    70.22000000
   C     94.46000000    26.21000000    72.06000000
   C     95.38000000    25.87000000    69.85000000
   C     94.38000000    25.58000000    70.80000000
   O     93.28000000    24.83000000    70.49000000
   H     98.89000000    29.14000000    69.65000000
   H     96.51000000    29.87000000    71.39000000
   H     97.65000000    28.33000000    73.03000000
   H     98.65000000    27.83000000    71.75000000
   H     95.46000000    27.57000000    73.32000000
   H     97.24000000    26.83000000    69.49000000
   H     93.64000000    26.14000000    72.75000000
   H     95.27000000    25.45000000    68.86000000
   H     93.39000000    24.51000000    69.59000000
   N     97.99000000    31.24000000    72.98000000
   C     98.59000000    32.26000000    73.82000000
   C     99.70000000    31.79000000    74.75000000
   O    100.14000000    30.64000000    74.71000000
   C     98.82000000    33.60000000    73.14000000
   C     97.81000000    34.17000000    72.15000000
   C    100.12000000    33.60000000    72.34000000
   C     96.49000000    34.40000000    72.87000000
   H     97.00000000    31.13000000    73.18000000
   H     97.79000000    32.50000000    74.52000000
   H     98.98000000    34.38000000    73.88000000
   H     97.66000000    33.44000000    71.35000000
   H     98.10000000    35.12000000    71.70000000
   H    101.07000000    33.43000000    72.85000000
   H    100.04000000    32.96000000    71.46000000
   H    100.26000000    34.65000000    72.06000000
   H     96.54000000    34.96000000    73.80000000
   H     95.84000000    34.96000000    72.19000000
   H     96.03000000    33.44000000    73.07000000
   N    100.13000000    32.62000000    75.71000000
   C    101.05000000    32.34000000    76.79000000
   C    100.54000000    32.14000000    78.21000000
   O    101.19000000    31.51000000    79.04000000
   C    102.20000000    33.35000000    76.77000000
   O    101.64000000    34.63000000    76.92000000
   H     99.80000000    33.57000000    75.77000000
   H    101.45000000    31.37000000    76.48000000
   H    102.66000000    33.26000000    75.78000000
   H    102.93000000    33.06000000    77.52000000
   H    102.26000000    35.30000000    76.60000000
   N     99.42000000    32.81000000    78.52000000
   C     98.72000000    32.55000000    79.76000000
   C     99.50000000    32.53000000    81.07000000
   O     99.29000000    31.57000000    81.82000000
   C     97.82000000    31.33000000    79.59000000
   H     99.04000000    33.26000000    77.71000000
   H     98.04000000    33.40000000    79.83000000
   H     98.51000000    30.49000000    79.47000000
   H     97.20000000    31.15000000    80.46000000
   H     97.13000000    31.45000000    78.75000000
   N    100.33000000    33.51000000    81.43000000
   C    100.65000000    34.75000000    80.76000000
   C     99.68000000    35.82000000    81.25000000
   O     99.55000000    36.00000000    82.46000000
   C    102.09000000    35.18000000    81.06000000
   H    100.94000000    33.34000000    82.22000000
   H    100.59000000    34.57000000    79.69000000
   H    102.71000000    34.66000000    80.34000000
   H    102.23000000    36.25000000    80.89000000
   H    102.35000000    34.93000000    82.09000000
   N     98.99000000    36.59000000    80.42000000
   C     98.67000000    36.50000000    79.00000000
   C     97.29000000    36.98000000    78.61000000
   O     96.82000000    36.83000000    77.48000000
   C     99.76000000    37.19000000    78.17000000
   C     99.73000000    38.68000000    78.50000000
   C    100.75000000    39.48000000    77.70000000
   O    101.39000000    40.40000000    78.26000000
   O    100.97000000    39.29000000    76.49000000
   H     98.66000000    37.46000000    80.82000000
   H     98.61000000    35.44000000    78.80000000
   H     99.68000000    36.96000000    77.11000000
   H    100.65000000    36.77000000    78.63000000
   H     99.90000000    38.88000000    79.56000000
   H     98.78000000    39.12000000    78.21000000
   N     96.60000000    37.67000000    79.53000000
   C     95.25000000    38.12000000    79.30000000
   H     94.61300000    37.79200000    80.12200000
   H     95.23400000    39.20800000    79.24100000
   H     94.88100000    37.70000000    78.36500000
   H     97.07000000    37.95000000    80.38000000
  Ca    102.17700000    30.09000000    70.64000000
   O    103.51700000    32.35000000    71.19000000
   H    103.47700000    32.80000000    72.03000000
   H    103.70700000    33.05000000    70.56000000
   O    101.08700000    27.52000000    71.46000000
   H    101.54700000    26.74000000    71.14000000
   H    100.60700000    27.21000000    72.23000000
   O    102.29700000    30.02000000    73.29000000
   H    102.87700000    29.54000000    73.88000000
   H    101.53600000    30.25000000    73.83000000

Ca 1.00



