%chk=loop4.apoCaM-CA-Ng.Init31.run25.water4.chk
%nprocshared=20
%mem=10GB
%nosave
#b3lyp/svp scf=(tight,noincore,xqc) Test 
#IOP(5/87=12) Density=Current Pop=(MK,readradii) iop(6/33=2) iop(6/42=6)

loop4.apoCaM-CA-Ng.Init31.run25.water4 

   -3  1 
   C     85.71000000    34.54000000     3.91000000
   C     86.89000000    33.70000000     4.38000000
   O     88.03000000    33.91000000     3.97000000
   H     84.88400000    34.43100000     4.61300000
   H     86.00700000    35.58800000     3.85900000
   H     85.39300000    34.20300000     2.92300000
   N     86.78000000    32.67000000     5.22000000
   C     85.78000000    32.20000000     6.16000000
   C     86.05000000    32.43000000     7.64000000
   O     85.19000000    32.22000000     8.49000000
   C     85.30000000    30.77000000     5.93000000
   C     85.20000000    30.37000000     4.46000000
   O     84.49000000    31.10000000     3.74000000
   O     85.94000000    29.54000000     3.90000000
   H     87.64000000    32.14000000     5.24000000
   H     84.84000000    32.74000000     6.00000000
   H     84.30000000    30.59000000     6.33000000
   H     85.94000000    30.15000000     6.56000000
   N     87.21000000    33.02000000     7.96000000
   C     87.49000000    33.50000000     9.29000000
   C     87.67000000    32.30000000    10.21000000
   O     87.35000000    32.37000000    11.39000000
   C     88.66000000    34.48000000     9.42000000
   C     88.68000000    35.08000000    10.83000000
   C     89.97000000    33.82000000     9.02000000
   C     87.60000000    36.14000000    10.99000000
   H     87.99000000    32.94000000     7.32000000
   H     86.57000000    33.99000000     9.63000000
   H     88.59000000    35.31000000     8.73000000
   H     89.64000000    35.57000000    11.00000000
   H     88.50000000    34.34000000    11.61000000
   H     89.89000000    33.19000000     8.14000000
   H     90.69000000    34.63000000     8.86000000
   H     90.27000000    33.21000000     9.87000000
   H     86.54000000    35.94000000    10.93000000
   H     87.78000000    36.61000000    11.96000000
   H     87.79000000    36.89000000    10.21000000
   N     88.13000000    31.18000000     9.66000000
   C     88.18000000    29.92000000    10.38000000
   C     88.29000000    28.75000000     9.41000000
   O     88.61000000    29.01000000     8.25000000
   C     89.29000000    29.93000000    11.42000000
   C     89.32000000    28.76000000    12.39000000
   O     90.31000000    28.62000000    13.13000000
   O     88.28000000    28.06000000    12.48000000
   H     88.54000000    31.09000000     8.74000000
   H     87.24000000    29.72000000    10.90000000
   H     89.05000000    30.77000000    12.07000000
   H     90.26000000    29.91000000    10.92000000
   N     88.22000000    27.51000000     9.88000000
   C     88.74000000    26.30000000     9.26000000
   C     90.26000000    26.32000000     9.16000000
   O     90.88000000    27.17000000     9.79000000
   H     87.91000000    27.49000000    10.84000000
   H     88.39000000    26.28000000     8.22000000
   H     88.33000000    25.43000000     9.76000000
   N     90.84000000    25.43000000     8.36000000
   C     92.26000000    25.27000000     8.08000000
   C     93.02000000    25.10000000     9.38000000
   O     92.63000000    24.40000000    10.31000000
   C     92.36000000    24.12000000     7.08000000
   C     91.74000000    22.80000000     7.51000000
   O     92.43000000    21.88000000     7.98000000
   O     90.50000000    22.71000000     7.37000000
   H     90.16000000    24.78000000     8.00000000
   H     92.57000000    26.17000000     7.54000000
   H     93.42000000    23.97000000     6.92000000
   H     91.99000000    24.37000000     6.08000000
   N     94.24000000    25.64000000     9.47000000
   C     94.76000000    26.79000000     8.75000000
   C     96.16000000    27.24000000     9.11000000
   O     96.61000000    26.81000000    10.18000000
   H     94.86000000    25.22000000    10.15000000
   H     94.07000000    27.63000000     8.76000000
   H     94.85000000    26.49000000     7.70000000
   N     96.98000000    27.99000000     8.37000000
   C     96.84000000    28.59000000     7.06000000
   C     95.69000000    29.59000000     6.96000000
   O     94.64000000    29.55000000     7.59000000
   C     96.74000000    27.57000000     5.93000000
   C     97.70000000    26.41000000     6.13000000
   C     97.72000000    25.43000000     4.96000000
   N     98.61000000    24.44000000     4.98000000
   O     97.01000000    25.54000000     3.96000000
   H     97.88000000    28.09000000     8.83000000
   H     97.74000000    29.15000000     6.85000000
   H     97.13000000    27.98000000     4.99000000
   H     95.75000000    27.18000000     5.69000000
   H     97.52000000    25.96000000     7.11000000
   H     98.73000000    26.75000000     6.22000000
   H     99.23000000    24.40000000     5.77000000
   H     98.87000000    23.99000000     4.12000000
   N     95.85000000    30.49000000     6.00000000
   C     94.86000000    31.40000000     5.46000000
   C     95.28000000    32.84000000     5.72000000
   O     96.43000000    33.22000000     5.55000000
   C     94.51000000    31.23000000     3.98000000
   C     93.61000000    30.00000000     3.93000000
   C     95.74000000    30.98000000     3.12000000
   H     96.79000000    30.51000000     5.63000000
   H     93.90000000    31.20000000     5.94000000
   H     93.91000000    32.07000000     3.63000000
   H     92.71000000    30.19000000     4.51000000
   H     93.39000000    29.68000000     2.92000000
   H     94.08000000    29.07000000     4.26000000
   H     96.31000000    30.09000000     3.39000000
   H     95.30000000    30.96000000     2.12000000
   H     96.48000000    31.77000000     3.19000000
   N     94.28000000    33.69000000     5.99000000
   C     94.55000000    35.08000000     6.28000000
   C     94.49000000    36.03000000     5.09000000
   O     94.75000000    37.23000000     5.17000000
   C     93.64000000    35.53000000     7.42000000
   C     93.61000000    34.61000000     8.64000000
   N     93.13000000    33.36000000     8.58000000
   O     94.14000000    35.01000000     9.67000000
   H     93.30000000    33.42000000     5.98000000
   H     95.58000000    35.16000000     6.65000000
   H     92.64000000    35.53000000     7.01000000
   H     93.81000000    36.56000000     7.73000000
   H     92.49000000    33.00000000     7.90000000
   H     93.45000000    32.83000000     9.38000000
   N     94.43000000    35.56000000     3.85000000
   C     94.61000000    36.20000000     2.56000000
   C     93.61000000    35.83000000     1.47000000
   O     92.80000000    34.92000000     1.63000000
   C     96.04000000    35.95000000     2.10000000
   C     96.78000000    37.02000000     1.32000000
   C     97.44000000    36.67000000     0.14000000
   C     96.69000000    38.35000000     1.74000000
   C     97.90000000    37.69000000    -0.70000000
   C     97.04000000    39.38000000     0.86000000
   C     97.68000000    39.04000000    -0.34000000
   O     98.06000000    40.01000000    -1.23000000
   H     94.34000000    34.56000000     3.70000000
   H     94.52000000    37.27000000     2.75000000
   H     95.97000000    35.02000000     1.55000000
   H     96.70000000    35.65000000     2.92000000
   H     97.57000000    35.64000000    -0.15000000
   H     96.33000000    38.59000000     2.73000000
   H     98.34000000    37.43000000    -1.65000000
   H     96.80000000    40.41000000     1.05000000
   H     97.84000000    40.90000000    -0.95000000
   N     93.73000000    36.35000000     0.25000000
   C     93.00000000    35.83000000    -0.90000000
   C     91.55000000    36.29000000    -0.88000000
   O     91.30000000    37.50000000    -0.93000000
   C     93.79000000    36.12000000    -2.17000000
   C     93.28000000    35.22000000    -3.29000000
   C     94.25000000    35.05000000    -4.45000000
   O     95.18000000    34.23000000    -4.32000000
   O     94.17000000    35.84000000    -5.42000000
   H     94.25000000    37.21000000     0.16000000
   H     93.04000000    34.76000000    -0.69000000
   H     94.85000000    35.90000000    -2.03000000
   H     93.67000000    37.18000000    -2.36000000
   H     92.34000000    35.63000000    -3.66000000
   H     93.12000000    34.23000000    -2.87000000
   N     90.61000000    35.38000000    -0.62000000
   C     89.22000000    35.79000000    -0.54000000
   C     89.00000000    36.70000000     0.66000000
   O     88.07000000    37.50000000     0.71000000
   C     88.29000000    34.58000000    -0.53000000
   C     88.58000000    33.51000000     0.52000000
   C     87.40000000    32.61000000     0.82000000
   O     87.48000000    31.95000000     1.88000000
   O     86.47000000    32.43000000     0.00000000
   H     90.78000000    34.38000000    -0.60000000
   H     88.96000000    36.39000000    -1.40000000
   H     88.25000000    34.12000000    -1.52000000
   H     87.29000000    34.98000000    -0.36000000
   H     88.66000000    34.07000000     1.46000000
   H     89.46000000    32.92000000     0.27000000
   N     89.84000000    36.49000000     1.67000000
   C     89.82000000    37.32000000     2.86000000
   H     89.05100000    38.08500000     2.75600000
   H     89.60100000    36.70200000     3.73100000
   H     90.79200000    37.79700000     2.98700000
   H     90.48000000    35.71000000     1.62000000
  Ca     85.49000000    30.32000000     1.31000000
   O     83.75000000    29.89000000    -0.90600000
   H     83.97000000    29.65000000    -1.80600000
   H     82.96000000    29.39000000    -0.70600000
   O     87.50000000    28.50000000     1.87000000
   H     87.30000000    27.69000000     2.34000000
   H     88.35000000    28.35000000     1.45000000
   O     84.42000000    27.92000000     1.59000000
   H     83.64000000    27.62000000     1.11000000
   H     84.34000000    27.51000000     2.45000000
   O     86.69000000    29.14000000    -0.74600000
   H     86.89000000    29.37000000    -1.65600000
   H     86.59000000    28.18000000    -0.75600000

Ca 1.00



