%chk=loop1.apoCaM-CA-Ng.Init295.run75.water5.chk
%nprocshared=20
%mem=10GB
%nosave
#b3lyp/svp scf=(tight,noincore,xqc) Test 
#IOP(5/87=12) Density=Current Pop=(MK,readradii) iop(6/33=2) iop(6/42=6)

loop1.apoCaM-CA-Ng.Init295.run75.water5 

   0  1 
   C      7.82000000     4.17000000    62.14000000
   C      7.57000000     5.67000000    62.18000000
   O      6.52000000     6.11000000    62.65000000
   H      8.76200000     3.94600000    62.64100000
   H      7.00700000     3.65200000    62.64800000
   H      7.87200000     3.83700000    61.10300000
   N      8.58000000     6.47000000    61.83000000
   C      8.61000000     7.91000000    61.68000000
   C      8.86000000     8.34000000    60.24000000
   O      9.44000000     7.57000000    59.48000000
   C      9.69000000     8.56000000    62.55000000
   C      9.62000000     8.02000000    63.98000000
   O     10.41000000     7.14000000    64.40000000
   O      8.79000000     8.51000000    64.77000000
   H      9.47000000     6.07000000    61.60000000
   H      7.66000000     8.36000000    61.99000000
   H      9.50000000     9.62000000    62.73000000
   H     10.69000000     8.59000000    62.13000000
   N      8.50000000     9.55000000    59.81000000
   C      8.60000000    10.15000000    58.50000000
   C     10.00000000    10.64000000    58.16000000
   O     10.11000000    10.62000000    56.94000000
   C      7.54000000    11.22000000    58.21000000
   C      6.12000000    10.75000000    58.52000000
   C      5.07000000    11.80000000    58.17000000
   C      4.82000000    12.18000000    56.71000000
   N      3.99000000    13.37000000    56.52000000
   H      8.25000000    10.24000000    60.51000000
   H      8.35000000     9.40000000    57.75000000
   H      7.63000000    11.45000000    57.15000000
   H      7.78000000    12.11000000    58.78000000
   H      5.95000000    10.68000000    59.59000000
   H      5.94000000     9.83000000    57.96000000
   H      5.35000000    12.71000000    58.71000000
   H      4.15000000    11.37000000    58.58000000
   H      4.41000000    11.26000000    56.30000000
   H      5.76000000    12.35000000    56.19000000
   H      4.07000000    14.00000000    57.31000000
   H      4.27000000    13.85000000    55.68000000
   H      3.03000000    13.08000000    56.43000000
   N     10.90000000    10.86000000    59.12000000
   C     12.28000000    11.25000000    58.95000000
   C     13.20000000    10.61000000    59.98000000
   O     12.88000000    10.62000000    61.17000000
   C     12.39000000    12.77000000    59.02000000
   C     13.85000000    13.13000000    58.80000000
   O     14.47000000    13.09000000    57.71000000
   O     14.52000000    13.48000000    59.80000000
   H     10.57000000    10.72000000    60.07000000
   H     12.59000000    11.03000000    57.93000000
   H     12.13000000    13.12000000    60.02000000
   H     11.75000000    13.23000000    58.27000000
   N     14.32000000    10.04000000    59.53000000
   C     15.24000000     9.35000000    60.41000000
   C     16.70000000     9.59000000    60.04000000
   O     17.10000000     9.36000000    58.90000000
   H     14.60000000    10.13000000    58.56000000
   H     14.94000000     8.30000000    60.41000000
   H     15.15000000     9.82000000    61.39000000
   N     17.57000000     9.95000000    60.99000000
   C     18.94000000    10.37000000    60.82000000
   C     19.84000000     9.58000000    61.76000000
   O     19.70000000     9.71000000    62.98000000
   C     19.18000000    11.87000000    60.94000000
   C     18.20000000    12.68000000    60.10000000
   O     18.18000000    12.61000000    58.86000000
   O     17.32000000    13.35000000    60.68000000
   H     17.25000000     9.87000000    61.95000000
   H     19.22000000    10.02000000    59.82000000
   H     20.25000000    12.08000000    60.83000000
   H     19.07000000    12.24000000    61.96000000
   N     20.72000000     8.75000000    61.20000000
   C     21.71000000     8.06000000    62.00000000
   C     21.21000000     6.90000000    62.85000000
   O     20.09000000     6.41000000    62.67000000
   H     20.74000000     8.56000000    60.21000000
   H     22.03000000     8.77000000    62.77000000
   H     22.54000000     7.69000000    61.40000000
   N     22.02000000     6.34000000    63.75000000
   C     21.95000000     5.00000000    64.30000000
   C     23.07000000     4.11000000    63.77000000
   O     24.12000000     4.67000000    63.45000000
   C     21.91000000     5.02000000    65.82000000
   C     20.90000000     5.88000000    66.57000000
   O     21.69000000     3.72000000    66.32000000
   H     22.89000000     6.84000000    63.88000000
   H     21.01000000     4.61000000    63.91000000
   H     22.92000000     5.21000000    66.20000000
   H     20.77000000     3.47000000    66.24000000
   H     20.40000000     6.46000000    65.79000000
   H     20.25000000     5.25000000    67.17000000
   H     21.37000000     6.50000000    67.33000000
   N     22.77000000     2.82000000    63.63000000
   C     23.79000000     1.85000000    63.28000000
   C     24.56000000     2.10000000    62.00000000
   O     25.78000000     1.98000000    62.04000000
   C     23.29000000     0.41000000    63.43000000
   C     22.26000000     0.04000000    62.37000000
   C     22.80000000     0.14000000    64.85000000
   C     21.92000000    -1.45000000    62.45000000
   H     21.83000000     2.53000000    63.84000000
   H     24.57000000     2.01000000    64.02000000
   H     24.16000000    -0.24000000    63.41000000
   H     22.73000000     0.18000000    61.39000000
   H     21.37000000     0.66000000    62.46000000
   H     23.48000000     0.67000000    65.51000000
   H     21.85000000     0.66000000    64.93000000
   H     22.78000000    -0.91000000    65.16000000
   H     21.15000000    -1.68000000    63.18000000
   H     21.45000000    -1.60000000    61.48000000
   H     22.82000000    -2.02000000    62.66000000
   N     23.93000000     2.71000000    60.99000000
   C     24.41000000     3.19000000    59.71000000
   C     24.43000000     2.06000000    58.69000000
   O     23.45000000     1.36000000    58.47000000
   C     23.60000000     4.40000000    59.25000000
   C     23.57000000     5.66000000    60.10000000
   O     24.32000000     4.80000000    58.11000000
   H     22.92000000     2.76000000    61.07000000
   H     25.44000000     3.50000000    59.86000000
   H     22.56000000     4.21000000    58.99000000
   H     23.72000000     5.39000000    57.65000000
   H     22.68000000     5.59000000    60.72000000
   H     24.46000000     5.71000000    60.73000000
   H     23.42000000     6.55000000    59.49000000
   N     25.60000000     1.77000000    58.11000000
   C     25.83000000     0.73000000    57.12000000
   C     25.87000000    -0.66000000    57.73000000
   O     26.82000000    -1.38000000    57.42000000
   C     27.09000000     1.17000000    56.37000000
   C     28.34000000     1.46000000    57.19000000
   O     26.90000000     2.34000000    55.62000000
   H     26.31000000     2.44000000    58.37000000
   H     24.94000000     0.81000000    56.50000000
   H     27.35000000     0.46000000    55.59000000
   H     27.19000000     2.14000000    54.73000000
   H     29.10000000     1.94000000    56.57000000
   H     28.22000000     2.19000000    58.00000000
   H     28.73000000     0.54000000    57.63000000
   N     24.94000000    -1.02000000    58.61000000
   C     24.89000000    -2.35000000    59.19000000
   C     23.45000000    -2.84000000    59.30000000
   O     22.51000000    -2.06000000    59.21000000
   C     25.32000000    -2.23000000    60.65000000
   C     26.79000000    -1.83000000    60.63000000
   C     27.24000000    -1.61000000    62.07000000
   C     28.37000000    -0.59000000    62.05000000
   N     28.69000000    -0.04000000    63.37000000
   H     24.16000000    -0.39000000    58.74000000
   H     25.47000000    -3.11000000    58.67000000
   H     25.16000000    -3.14000000    61.24000000
   H     24.77000000    -1.43000000    61.15000000
   H     26.97000000    -0.92000000    60.05000000
   H     27.47000000    -2.46000000    60.04000000
   H     27.64000000    -2.58000000    62.37000000
   H     26.40000000    -1.20000000    62.63000000
   H     28.09000000     0.26000000    61.43000000
   H     29.10000000    -1.19000000    61.51000000
   H     27.99000000     0.61000000    63.72000000
   H     28.87000000    -0.74000000    64.07000000
   H     29.54000000     0.49000000    63.25000000
   N     23.22000000    -4.11000000    59.67000000
   C     21.88000000    -4.55000000    60.00000000
   C     20.90000000    -4.80000000    58.86000000
   O     21.26000000    -5.65000000    58.04000000
   C     22.04000000    -5.80000000    60.87000000
   C     23.18000000    -5.73000000    61.89000000
   C     23.24000000    -6.96000000    62.79000000
   O     24.12000000    -7.81000000    62.52000000
   O     22.50000000    -7.09000000    63.79000000
   H     23.98000000    -4.76000000    59.77000000
   H     21.39000000    -3.89000000    60.72000000
   H     22.35000000    -6.64000000    60.26000000
   H     21.12000000    -6.06000000    61.38000000
   H     22.99000000    -4.88000000    62.54000000
   H     24.13000000    -5.61000000    61.37000000
   N     19.73000000    -4.19000000    58.73000000
   C     18.87000000    -3.56000000    59.72000000
   H     17.90300000    -4.06200000    59.73200000
   H     19.33100000    -3.63700000    60.70500000
   H     18.73000000    -2.50900000    59.46500000
   H     19.29000000    -4.33000000    57.82000000
  Ca     16.39000000    14.71000000    58.48000000
   O     18.38000000    15.79000000    59.55000000
   H     19.33000000    15.78000000    59.41000000
   H     18.24000000    16.45000000    60.23000000
   O     15.73000000    16.98000000    59.88000000
   H     14.98000000    17.08000000    60.48000000
   H     15.90000000    17.86000000    59.56000000
   O     17.20000000    13.68000000    56.14000000
   H     16.69000000    13.41000000    55.37000000
   H     18.05000000    13.26000000    56.01000000
   O     14.17000000    15.97000000    57.53000000
   H     14.04000000    16.34000000    56.66000000
   H     13.28000000    15.86000000    57.88000000
   O     17.15000000    16.85000000    57.02000000
   H     17.95000000    17.28000000    57.31000000
   H     17.02000000    17.15000000    56.13000000

Ca 1.00



