%chk=loop3.apoCaM-CA-Ng.Init293.run26.water4.chk
%nprocshared=20
%mem=10GB
%nosave
#b3lyp/svp scf=(tight,noincore,xqc) Test 
#IOP(5/87=12) Density=Current Pop=(MK,readradii) iop(6/33=2) iop(6/42=6)

loop3.apoCaM-CA-Ng.Init293.run26.water4 

   0  1 
   C     42.03000000     3.83000000    -1.80000000
   C     41.29000000     3.76000000    -3.12000000
   O     40.77000000     2.71000000    -3.50000000
   H     42.92700000     4.43800000    -1.91900000
   H     41.38500000     4.27800000    -1.04400000
   H     42.31200000     2.82500000    -1.48700000
   N     41.24000000     4.90000000    -3.82000000
   C     40.54000000     5.14000000    -5.06000000
   C     39.15000000     5.74000000    -4.86000000
   O     38.83000000     6.45000000    -3.92000000
   C     41.45000000     5.99000000    -5.93000000
   C     41.06000000     6.14000000    -7.40000000
   O     41.31000000     7.19000000    -8.03000000
   O     40.46000000     5.21000000    -7.97000000
   H     41.70000000     5.67000000    -3.36000000
   H     40.35000000     4.22000000    -5.61000000
   H     42.45000000     5.56000000    -5.93000000
   H     41.46000000     6.93000000    -5.38000000
   N     38.28000000     5.45000000    -5.84000000
   C     36.88000000     5.73000000    -6.06000000
   C     36.50000000     7.19000000    -6.27000000
   O     35.95000000     7.53000000    -7.32000000
   C     35.96000000     5.11000000    -5.01000000
   C     36.23000000     3.66000000    -4.64000000
   C     35.26000000     2.98000000    -3.68000000
   C     35.24000000     3.81000000    -2.41000000
   N     34.07000000     3.39000000    -1.61000000
   H     38.69000000     4.78000000    -6.48000000
   H     36.63000000     5.15000000    -6.95000000
   H     34.94000000     5.25000000    -5.36000000
   H     36.05000000     5.72000000    -4.11000000
   H     37.22000000     3.63000000    -4.18000000
   H     36.19000000     3.11000000    -5.59000000
   H     35.62000000     1.98000000    -3.42000000
   H     34.27000000     2.78000000    -4.09000000
   H     35.18000000     4.88000000    -2.59000000
   H     36.15000000     3.61000000    -1.84000000
   H     33.96000000     4.01000000    -0.81000000
   H     33.23000000     3.49000000    -2.15000000
   H     34.12000000     2.48000000    -1.17000000
   N     36.90000000     8.21000000    -5.50000000
   C     36.57000000     9.60000000    -5.69000000
   C     37.54000000    10.49000000    -4.93000000
   O     37.95000000    10.17000000    -3.82000000
   C     35.19000000     9.87000000    -5.08000000
   C     34.66000000    11.29000000    -5.05000000
   O     34.44000000    11.99000000    -6.06000000
   O     34.45000000    11.81000000    -3.93000000
   H     37.64000000     8.01000000    -4.85000000
   H     36.63000000     9.83000000    -6.75000000
   H     35.36000000     9.53000000    -4.06000000
   H     34.44000000     9.21000000    -5.52000000
   N     37.95000000    11.63000000    -5.51000000
   C     38.58000000    12.77000000    -4.88000000
   C     37.92000000    14.06000000    -5.35000000
   O     37.10000000    14.11000000    -6.26000000
   H     37.58000000    11.92000000    -6.40000000
   H     39.66000000    12.78000000    -5.06000000
   H     38.54000000    12.67000000    -3.80000000
   N     38.16000000    15.13000000    -4.59000000
   C     37.38000000    16.36000000    -4.51000000
   C     38.16000000    17.58000000    -4.98000000
   O     37.74000000    18.70000000    -4.73000000
   C     36.75000000    16.46000000    -3.13000000
   C     35.94000000    15.23000000    -2.74000000
   N     36.34000000    14.58000000    -1.65000000
   O     35.28000000    14.62000000    -3.58000000
   H     38.72000000    14.97000000    -3.77000000
   H     36.55000000    16.31000000    -5.22000000
   H     35.98000000    17.22000000    -3.11000000
   H     37.47000000    16.63000000    -2.32000000
   H     36.82000000    15.03000000    -0.88000000
   H     35.88000000    13.69000000    -1.51000000
   N     39.32000000    17.49000000    -5.64000000
   C     40.12000000    18.58000000    -6.16000000
   C     40.57000000    19.53000000    -5.05000000
   O     41.57000000    19.21000000    -4.42000000
   H     39.60000000    16.56000000    -5.89000000
   H     39.58000000    19.17000000    -6.90000000
   H     41.00000000    18.17000000    -6.65000000
   N     39.92000000    20.69000000    -4.91000000
   C     40.09000000    21.63000000    -3.83000000
   C     39.91000000    21.09000000    -2.42000000
   O     40.20000000    21.85000000    -1.50000000
   C     41.36000000    22.43000000    -4.10000000
   C     41.74000000    23.64000000    -3.27000000
   C     40.94000000    24.78000000    -3.14000000
   C     43.05000000    23.70000000    -2.76000000
   C     41.28000000    25.84000000    -2.30000000
   C     43.49000000    24.82000000    -2.06000000
   C     42.62000000    25.91000000    -1.85000000
   O     42.98000000    26.99000000    -1.10000000
   H     39.02000000    20.72000000    -5.38000000
   H     39.36000000    22.44000000    -3.89000000
   H     41.33000000    22.80000000    -5.12000000
   H     42.17000000    21.70000000    -4.14000000
   H     39.91000000    24.61000000    -3.43000000
   H     43.78000000    22.93000000    -3.00000000
   H     40.51000000    26.51000000    -1.94000000
   H     44.47000000    24.81000000    -1.62000000
   H     43.68000000    26.79000000    -0.48000000
   N     39.43000000    19.86000000    -2.22000000
   C     39.03000000    19.23000000    -0.98000000
   C     37.86000000    19.96000000    -0.35000000
   O     36.77000000    19.40000000    -0.19000000
   C     40.20000000    18.97000000    -0.03000000
   C     41.17000000    17.92000000    -0.55000000
   C     39.74000000    18.53000000     1.36000000
   C     42.51000000    17.83000000     0.18000000
   H     39.13000000    19.41000000    -3.07000000
   H     38.62000000    18.23000000    -1.12000000
   H     40.66000000    19.93000000     0.20000000
   H     41.37000000    18.14000000    -1.60000000
   H     40.64000000    16.96000000    -0.46000000
   H     39.30000000    17.54000000     1.41000000
   H     40.62000000    18.48000000     1.99000000
   H     39.11000000    19.33000000     1.76000000
   H     42.98000000    18.80000000     0.35000000
   H     42.39000000    17.27000000     1.11000000
   H     43.23000000    17.30000000    -0.44000000
   N     38.00000000    21.24000000     0.02000000
   C     36.89000000    22.12000000     0.31000000
   C     36.07000000    21.66000000     1.50000000
   O     34.89000000    21.97000000     1.59000000
   C     37.41000000    23.49000000     0.75000000
   O     37.92000000    24.18000000    -0.36000000
   H     38.90000000    21.69000000    -0.04000000
   H     36.23000000    22.30000000    -0.54000000
   H     38.18000000    23.37000000     1.51000000
   H     36.56000000    24.10000000     1.07000000
   H     38.29000000    24.96000000     0.06000000
   N     36.69000000    20.94000000     2.45000000
   C     36.11000000    20.58000000     3.73000000
   C     34.69000000    20.04000000     3.65000000
   O     33.89000000    20.25000000     4.56000000
   C     36.26000000    21.79000000     4.65000000
   H     37.68000000    20.90000000     2.29000000
   H     36.69000000    19.80000000     4.21000000
   H     35.80000000    22.68000000     4.22000000
   H     35.66000000    21.68000000     5.55000000
   H     37.29000000    21.91000000     5.00000000
   N     34.34000000    19.33000000     2.58000000
   C     33.09000000    18.62000000     2.35000000
   C     33.34000000    17.21000000     1.85000000
   O     34.48000000    16.79000000     1.64000000
   C     32.24000000    19.47000000     1.42000000
   H     35.00000000    19.34000000     1.81000000
   H     32.63000000    18.52000000     3.34000000
   H     31.27000000    19.01000000     1.21000000
   H     32.11000000    20.45000000     1.88000000
   H     32.88000000    19.63000000     0.55000000
   N     32.25000000    16.47000000     1.66000000
   C     32.15000000    15.05000000     1.39000000
   C     32.85000000    14.20000000     2.44000000
   O     33.22000000    13.06000000     2.16000000
   C     32.52000000    14.74000000    -0.06000000
   C     31.51000000    15.31000000    -1.05000000
   C     32.02000000    14.83000000    -2.40000000
   O     32.35000000    15.72000000    -3.21000000
   O     32.07000000    13.63000000    -2.74000000
   H     31.34000000    16.92000000     1.75000000
   H     31.08000000    14.91000000     1.48000000
   H     32.73000000    13.68000000    -0.23000000
   H     33.50000000    15.18000000    -0.25000000
   H     31.56000000    16.40000000    -1.09000000
   H     30.50000000    14.94000000    -0.91000000
   N     32.77000000    14.63000000     3.70000000
   C     33.47000000    14.07000000     4.84000000
   H     34.37500000    14.64800000     5.03000000
   H     32.82500000    14.10800000     5.71800000
   H     33.73800000    13.03500000     4.63000000
   H     32.30000000    15.51000000     3.85000000
  Ca     33.31000000    14.02000000    -5.05300000
   O     34.12000000    16.44000000    -5.87300000
   H     33.95000000    17.33000000    -5.56300000
   H     34.57000000    16.55000000    -6.70300000
   O     32.82000000    13.67000000    -7.81300000
   H     32.02000000    14.16000000    -8.01300000
   H     32.93000000    13.08000000    -8.55300000
   O     31.18000000    15.52000000    -6.11300000
   H     31.09000000    15.94000000    -6.97300000
   H     30.49000000    15.93000000    -5.58300000
   O     31.21000000    12.43000000    -5.57300000
   H     30.97000000    12.06000000    -6.42300000
   H     30.37000000    12.60000000    -5.14300000

Ca 1.00



