%chk=loop3.holoCaM.run15.water2.chk
%nprocshared=20
%mem=10GB
%nosave
#b3lyp/svp scf=(tight,noincore,xqc) Test 
#IOP(5/87=12) Density=Current Pop=(MK,readradii) iop(6/33=2) iop(6/42=6)

loop3.holoCaM.run15.water2 

   0  1 
   C     61.12000000    49.31000000    35.86000000
   C     61.49000000    48.09000000    36.70000000
   O     61.03000000    48.04000000    37.83000000
   H     60.23700000    49.78800000    36.28400000
   H     61.95000000    50.01600000    35.85900000
   H     60.90700000    48.99700000    34.83800000
   N     62.45000000    47.26000000    36.28000000
   C     63.12000000    46.29000000    37.12000000
   C     63.94000000    47.13000000    38.09000000
   O     64.87000000    47.85000000    37.76000000
   C     63.95000000    45.33000000    36.28000000
   C     64.51000000    44.16000000    37.08000000
   O     64.31000000    44.16000000    38.32000000
   O     65.01000000    43.18000000    36.49000000
   H     62.91000000    47.37000000    35.39000000
   H     62.33000000    45.77000000    37.67000000
   H     64.83000000    45.91000000    36.01000000
   H     63.32000000    45.03000000    35.45000000
   N     63.54000000    47.07000000    39.37000000
   C     63.98000000    48.00000000    40.39000000
   C     65.23000000    47.75000000    41.22000000
   O     65.94000000    48.66000000    41.61000000
   C     62.86000000    48.23000000    41.40000000
   C     62.99000000    49.40000000    42.37000000
   C     63.07000000    50.79000000    41.73000000
   C     63.25000000    51.80000000    42.86000000
   N     63.33000000    53.16000000    42.28000000
   H     62.83000000    46.39000000    39.60000000
   H     64.10000000    48.94000000    39.84000000
   H     62.77000000    47.32000000    42.00000000
   H     61.91000000    48.31000000    40.87000000
   H     63.91000000    49.22000000    42.93000000
   H     62.13000000    49.38000000    43.03000000
   H     62.17000000    51.08000000    41.19000000
   H     63.88000000    50.87000000    41.01000000
   H     64.19000000    51.56000000    43.34000000
   H     62.45000000    51.79000000    43.60000000
   H     63.60000000    53.76000000    43.04000000
   H     64.00000000    53.21000000    41.53000000
   H     62.41000000    53.50000000    42.05000000
   N     65.51000000    46.45000000    41.38000000
   C     66.82000000    45.93000000    41.72000000
   C     67.61000000    45.57000000    40.47000000
   O     68.82000000    45.42000000    40.60000000
   C     66.70000000    44.76000000    42.70000000
   C     65.87000000    43.57000000    42.23000000
   O     65.51000000    42.76000000    43.11000000
   O     65.64000000    43.39000000    41.01000000
   H     64.73000000    45.92000000    41.03000000
   H     67.51000000    46.67000000    42.13000000
   H     66.18000000    45.10000000    43.59000000
   H     67.68000000    44.32000000    42.89000000
   N     67.00000000    45.61000000    39.29000000
   C     67.70000000    45.21000000    38.09000000
   C     68.13000000    43.75000000    38.06000000
   O     69.04000000    43.38000000    37.33000000
   H     65.99000000    45.70000000    39.28000000
   H     68.55000000    45.89000000    38.07000000
   H     66.99000000    45.29000000    37.26000000
   N     67.40000000    42.89000000    38.78000000
   C     67.83000000    41.51000000    38.93000000
   C     67.76000000    40.72000000    37.63000000
   O     68.39000000    39.67000000    37.54000000
   C     67.29000000    40.89000000    40.21000000
   C     65.89000000    40.36000000    39.96000000
   N     65.58000000    39.19000000    40.54000000
   O     65.12000000    40.99000000    39.24000000
   H     66.68000000    43.22000000    39.40000000
   H     68.89000000    41.56000000    39.18000000
   H     67.31000000    41.60000000    41.04000000
   H     68.00000000    40.13000000    40.53000000
   H     66.07000000    38.74000000    41.30000000
   H     64.64000000    38.91000000    40.31000000
   N     66.99000000    41.22000000    36.66000000
   C     66.70000000    40.54000000    35.41000000
   C     65.28000000    40.01000000    35.35000000
   O     65.00000000    39.30000000    34.38000000
   H     66.43000000    42.05000000    36.80000000
   H     67.43000000    39.75000000    35.22000000
   H     66.89000000    41.24000000    34.60000000
   N     64.35000000    40.26000000    36.27000000
   C     63.02000000    39.69000000    36.34000000
   C     62.07000000    40.72000000    36.93000000
   O     62.47000000    41.53000000    37.77000000
   C     63.06000000    38.55000000    37.34000000
   C     64.06000000    37.48000000    36.94000000
   C     65.25000000    37.26000000    37.65000000
   C     63.61000000    36.51000000    36.04000000
   C     66.12000000    36.25000000    37.23000000
   C     64.40000000    35.39000000    35.78000000
   C     65.67000000    35.23000000    36.37000000
   O     66.46000000    34.26000000    35.82000000
   H     64.47000000    41.01000000    36.93000000
   H     62.62000000    39.40000000    35.37000000
   H     62.03000000    38.20000000    37.43000000
   H     63.31000000    38.79000000    38.38000000
   H     65.59000000    38.09000000    38.24000000
   H     62.66000000    36.68000000    35.56000000
   H     67.14000000    36.15000000    37.58000000
   H     64.02000000    34.67000000    35.06000000
   H     65.97000000    33.68000000    35.23000000
   N     60.78000000    40.78000000    36.58000000
   C     59.74000000    41.57000000    37.20000000
   C     58.98000000    40.87000000    38.32000000
   O     58.53000000    39.73000000    38.24000000
   C     58.91000000    42.27000000    36.12000000
   C     59.73000000    42.68000000    34.90000000
   C     57.99000000    43.36000000    36.68000000
   C     60.56000000    43.94000000    35.15000000
   H     60.52000000    40.07000000    35.91000000
   H     60.29000000    42.39000000    37.65000000
   H     58.21000000    41.54000000    35.74000000
   H     59.00000000    42.86000000    34.11000000
   H     60.38000000    41.89000000    34.52000000
   H     57.50000000    43.87000000    35.85000000
   H     57.32000000    42.79000000    37.32000000
   H     58.62000000    44.07000000    37.20000000
   H     61.34000000    44.07000000    34.39000000
   H     59.92000000    44.80000000    35.37000000
   H     61.12000000    43.84000000    36.07000000
   N     58.75000000    41.62000000    39.40000000
   C     57.93000000    41.21000000    40.52000000
   C     56.62000000    41.99000000    40.55000000
   O     56.44000000    42.98000000    39.86000000
   C     58.73000000    41.48000000    41.80000000
   O     59.50000000    40.33000000    42.08000000
   H     59.37000000    42.41000000    39.49000000
   H     57.64000000    40.16000000    40.45000000
   H     58.01000000    41.54000000    42.61000000
   H     59.24000000    42.44000000    41.79000000
   H     59.10000000    39.83000000    42.79000000
   N     55.62000000    41.62000000    41.36000000
   C     54.42000000    42.40000000    41.53000000
   C     54.68000000    43.87000000    41.83000000
   O     54.32000000    44.67000000    40.97000000
   C     53.58000000    41.74000000    42.62000000
   H     55.69000000    40.76000000    41.88000000
   H     53.90000000    42.28000000    40.58000000
   H     53.34000000    40.72000000    42.30000000
   H     54.10000000    41.58000000    43.57000000
   H     52.57000000    42.10000000    42.81000000
   N     55.33000000    44.22000000    42.94000000
   C     55.68000000    45.60000000    43.21000000
   C     56.32000000    46.37000000    42.06000000
   O     56.16000000    47.59000000    42.13000000
   C     56.37000000    45.72000000    44.57000000
   H     55.63000000    43.54000000    43.62000000
   H     54.70000000    46.08000000    43.33000000
   H     56.62000000    46.74000000    44.85000000
   H     55.58000000    45.48000000    45.28000000
   H     57.26000000    45.10000000    44.66000000
   N     56.97000000    45.79000000    41.06000000
   C     57.65000000    46.44000000    39.95000000
   C     56.68000000    46.41000000    38.78000000
   O     56.69000000    47.37000000    38.02000000
   C     58.93000000    45.66000000    39.67000000
   C     59.92000000    45.55000000    40.82000000
   C     61.09000000    44.61000000    40.57000000
   O     62.28000000    44.88000000    40.87000000
   O     60.93000000    43.46000000    40.10000000
   H     57.12000000    44.81000000    41.28000000
   H     58.01000000    47.42000000    40.27000000
   H     59.50000000    46.13000000    38.86000000
   H     58.59000000    44.65000000    39.42000000
   H     59.31000000    45.06000000    41.57000000
   H     60.35000000    46.52000000    41.09000000
   N     55.85000000    45.36000000    38.68000000
   C     54.74000000    45.22000000    37.76000000
   H     53.92500000    45.87300000    38.07200000
   H     55.06200000    45.49700000    36.75600000
   H     54.39600000    44.18600000    37.76000000
   H     55.95000000    44.64000000    39.38000000
  Ca     63.41000000    42.65000000    40.14000000
   O     63.19000000    41.80000000    42.55000000
   H     62.46000000    42.07000000    43.11000000
   H     63.97000000    42.02000000    43.05000000
   O     62.01000000    40.23000000    40.49000000
   H     62.43000000    39.37000000    40.54000000
   H     61.20000000    40.14000000    40.99000000

Ca 1.00



