%chk=loop1.holoCaM.run42.water2.chk
%nprocshared=20
%mem=10GB
%nosave
#b3lyp/svp scf=(tight,noincore,xqc) Test 
#IOP(5/87=12) Density=Current Pop=(MK,readradii) iop(6/33=2) iop(6/42=6)

loop1.holoCaM.run42.water2 

   0  1 
   C     65.36000000    96.89000000    11.74000000
   C     65.05000000    97.56000000    13.07000000
   O     63.90000000    97.53000000    13.50000000
   H     66.39300000    96.54200000    11.74100000
   H     64.69200000    96.04100000    11.59600000
   H     65.21900000    97.60600000    10.93000000
   N     66.04000000    98.15000000    13.76000000
   C     65.70000000    98.96000000    14.91000000
   C     65.24000000   100.31000000    14.38000000
   O     66.01000000   101.06000000    13.78000000
   C     66.94000000    99.12000000    15.79000000
   C     66.79000000   100.11000000    16.94000000
   O     67.74000000   100.83000000    17.31000000
   O     65.65000000   100.26000000    17.44000000
   H     67.01000000    97.99000000    13.55000000
   H     64.93000000    98.49000000    15.51000000
   H     67.83000000    99.37000000    15.23000000
   H     67.12000000    98.17000000    16.28000000
   N     63.95000000   100.63000000    14.55000000
   C     63.38000000   101.80000000    13.91000000
   C     63.50000000   103.06000000    14.76000000
   O     63.31000000   104.17000000    14.27000000
   C     62.00000000   101.54000000    13.32000000
   C     61.69000000   102.56000000    12.24000000
   C     60.42000000   102.33000000    11.43000000
   C     59.11000000   102.28000000    12.22000000
   N     57.98000000   102.29000000    11.28000000
   H     63.44000000    99.95000000    15.09000000
   H     63.92000000   101.99000000    12.98000000
   H     61.20000000   101.55000000    14.06000000
   H     61.96000000   100.53000000    12.91000000
   H     62.48000000   102.64000000    11.50000000
   H     61.59000000   103.55000000    12.68000000
   H     60.63000000   101.36000000    10.97000000
   H     60.42000000   103.12000000    10.68000000
   H     59.01000000   103.06000000    12.98000000
   H     59.06000000   101.38000000    12.83000000
   H     57.09000000   102.43000000    11.74000000
   H     58.11000000   103.02000000    10.59000000
   H     57.95000000   101.45000000    10.71000000
   N     63.81000000   102.95000000    16.06000000
   C     63.61000000   103.95000000    17.09000000
   C     64.71000000   104.03000000    18.14000000
   O     64.54000000   104.57000000    19.24000000
   C     62.23000000   103.75000000    17.71000000
   C     61.98000000   102.37000000    18.31000000
   O     60.84000000   102.10000000    18.74000000
   O     62.89000000   101.51000000    18.37000000
   H     63.97000000   101.99000000    16.31000000
   H     63.69000000   104.94000000    16.63000000
   H     61.47000000   103.94000000    16.95000000
   H     61.97000000   104.44000000    18.51000000
   N     65.92000000   103.57000000    17.84000000
   C     67.09000000   103.92000000    18.64000000
   C     67.10000000   103.26000000    20.01000000
   O     67.08000000   103.97000000    21.01000000
   H     66.06000000   102.85000000    17.16000000
   H     67.10000000   105.00000000    18.75000000
   H     68.04000000   103.65000000    18.20000000
   N     67.35000000   101.95000000    20.05000000
   C     67.61000000   101.27000000    21.31000000
   C     68.53000000   100.07000000    21.15000000
   O     68.96000000    99.48000000    22.15000000
   C     66.28000000   100.87000000    21.94000000
   C     65.35000000   100.03000000    21.08000000
   O     65.90000000    99.10000000    20.44000000
   O     64.11000000   100.21000000    21.09000000
   H     67.51000000   101.46000000    19.18000000
   H     68.14000000   101.97000000    21.94000000
   H     65.70000000   101.76000000    22.19000000
   H     66.52000000   100.34000000    22.87000000
   N     68.84000000    99.61000000    19.94000000
   C     69.71000000    98.49000000    19.64000000
   C     69.12000000    97.13000000    19.99000000
   O     69.91000000    96.19000000    20.03000000
   H     68.47000000   100.05000000    19.11000000
   H     70.62000000    98.57000000    20.23000000
   H     69.99000000    98.41000000    18.59000000
   N     67.79000000    97.04000000    19.97000000
   C     66.93000000    95.92000000    20.28000000
   C     65.80000000    95.81000000    19.26000000
   O     65.44000000    96.84000000    18.69000000
   C     66.38000000    95.89000000    21.70000000
   C     67.53000000    95.67000000    22.69000000
   O     65.68000000    97.08000000    21.96000000
   H     67.28000000    97.91000000    19.98000000
   H     67.54000000    95.04000000    20.06000000
   H     65.67000000    95.08000000    21.89000000
   H     66.04000000    97.82000000    21.46000000
   H     68.20000000    94.99000000    22.16000000
   H     68.13000000    96.52000000    23.00000000
   H     67.19000000    95.05000000    23.52000000
   N     65.32000000    94.60000000    18.98000000
   C     64.16000000    94.37000000    18.14000000
   C     63.05000000    93.84000000    19.03000000
   O     63.20000000    92.86000000    19.76000000
   C     64.46000000    93.47000000    16.95000000
   C     65.84000000    93.76000000    16.36000000
   C     63.38000000    93.53000000    15.87000000
   C     65.95000000    95.07000000    15.57000000
   H     65.76000000    93.79000000    19.37000000
   H     64.00000000    95.38000000    17.75000000
   H     64.48000000    92.47000000    17.38000000
   H     66.05000000    92.93000000    15.69000000
   H     66.62000000    93.64000000    17.11000000
   H     63.58000000    92.83000000    15.05000000
   H     62.40000000    93.29000000    16.26000000
   H     63.30000000    94.50000000    15.39000000
   H     67.02000000    95.12000000    15.35000000
   H     65.36000000    94.85000000    14.69000000
   H     65.57000000    95.95000000    16.09000000
   N     61.85000000    94.42000000    18.88000000
   C     60.59000000    93.99000000    19.45000000
   C     59.68000000    93.37000000    18.41000000
   O     59.86000000    93.56000000    17.21000000
   C     59.97000000    95.22000000    20.10000000
   C     59.91000000    96.46000000    19.21000000
   O     58.64000000    95.20000000    20.57000000
   H     61.71000000    95.11000000    18.16000000
   H     60.72000000    93.28000000    20.27000000
   H     60.48000000    95.54000000    21.01000000
   H     58.70000000    95.17000000    21.53000000
   H     60.87000000    96.92000000    18.96000000
   H     59.39000000    96.15000000    18.31000000
   H     59.31000000    97.21000000    19.73000000
   N     58.52000000    92.94000000    18.91000000
   C     57.57000000    92.21000000    18.08000000
   C     57.00000000    93.09000000    16.98000000
   O     56.87000000    92.58000000    15.87000000
   C     56.42000000    91.55000000    18.83000000
   C     56.91000000    90.32000000    19.57000000
   O     55.88000000    92.46000000    19.76000000
   H     58.41000000    92.96000000    19.91000000
   H     58.19000000    91.47000000    17.58000000
   H     55.60000000    91.38000000    18.13000000
   H     55.32000000    91.93000000    20.34000000
   H     57.41000000    89.69000000    18.84000000
   H     57.63000000    90.62000000    20.34000000
   H     56.03000000    89.70000000    19.76000000
   N     56.80000000    94.38000000    17.26000000
   C     56.41000000    95.40000000    16.30000000
   C     57.44000000    95.85000000    15.28000000
   O     57.21000000    96.73000000    14.45000000
   C     55.80000000    96.55000000    17.11000000
   C     56.77000000    97.35000000    17.97000000
   C     55.96000000    98.48000000    18.60000000
   C     56.96000000    99.42000000    19.26000000
   N     56.29000000   100.39000000    20.15000000
   H     57.02000000    94.71000000    18.19000000
   H     55.58000000    95.03000000    15.69000000
   H     55.03000000    96.14000000    17.76000000
   H     55.23000000    97.25000000    16.49000000
   H     57.51000000    97.68000000    17.24000000
   H     57.09000000    96.75000000    18.82000000
   H     55.36000000    98.00000000    19.37000000
   H     55.43000000    99.00000000    17.80000000
   H     57.52000000   100.03000000    18.55000000
   H     57.64000000    98.80000000    19.85000000
   H     55.50000000   100.81000000    19.68000000
   H     55.96000000    99.93000000    20.98000000
   H     56.92000000   101.15000000    20.34000000
   N     58.68000000    95.38000000    15.42000000
   C     59.67000000    95.47000000    14.37000000
   C     59.81000000    94.17000000    13.61000000
   O     59.93000000    94.26000000    12.39000000
   C     60.97000000    96.02000000    14.96000000
   C     60.80000000    97.46000000    15.43000000
   C     61.95000000    97.94000000    16.31000000
   O     62.44000000    97.27000000    17.25000000
   O     62.32000000    99.13000000    16.28000000
   H     58.86000000    94.82000000    16.25000000
   H     59.31000000    96.10000000    13.56000000
   H     61.75000000    96.04000000    14.20000000
   H     61.23000000    95.33000000    15.77000000
   H     59.90000000    97.46000000    16.05000000
   H     60.62000000    98.19000000    14.64000000
   N     59.93000000    93.07000000    14.36000000
   C     60.10000000    91.71000000    13.89000000
   H     61.08700000    91.34700000    14.17800000
   H     59.33500000    91.07300000    14.33500000
   H     60.00700000    91.68600000    12.80400000
   H     59.66000000    93.20000000    15.33000000
  Ca     63.64000000    99.10000000    18.63000000
   O     63.14000000    97.42000000    20.87000000
   H     62.64000000    97.75000000    21.62000000
   H     64.02000000    97.29000000    21.21000000
   O     61.07000000    99.62000000    19.67000000
   H     61.03000000   100.54000000    19.39000000
   H     60.57000000    99.60000000    20.48000000

Ca 1.00



