%chk=loop1.apoCaM-CA-Ng.Init31.run14.water6.chk
%nprocshared=20
%mem=10GB
%nosave
#b3lyp/svp scf=(tight,noincore,xqc) Test 
#IOP(5/87=12) Density=Current Pop=(MK,readradii) iop(6/33=2) iop(6/42=6)

loop1.apoCaM-CA-Ng.Init31.run14.water6 

   0  1 
   C     71.31000000    79.00000000   -15.91000000
   C     70.13000000    78.08000000   -16.17000000
   O     70.01000000    77.66000000   -17.32000000
   H     72.14200000    78.71300000   -16.55200000
   H     71.02400000    80.02900000   -16.12600000
   H     71.61200000    78.91800000   -14.86600000
   N     69.28000000    77.79000000   -15.18000000
   C     68.15000000    76.90000000   -15.23000000
   C     66.93000000    77.59000000   -14.63000000
   O     66.96000000    78.75000000   -14.24000000
   C     68.60000000    75.59000000   -14.60000000
   C     68.11000000    74.36000000   -15.35000000
   O     68.70000000    74.10000000   -16.41000000
   O     67.04000000    73.82000000   -14.97000000
   H     69.36000000    78.29000000   -14.31000000
   H     67.89000000    76.65000000   -16.26000000
   H     68.23000000    75.54000000   -13.57000000
   H     69.69000000    75.65000000   -14.59000000
   N     65.88000000    76.78000000   -14.49000000
   C     64.65000000    77.20000000   -13.86000000
   C     64.59000000    77.16000000   -12.34000000
   O     64.13000000    78.16000000   -11.80000000
   C     63.46000000    76.52000000   -14.52000000
   C     62.06000000    76.96000000   -14.12000000
   C     60.99000000    76.14000000   -14.83000000
   C     59.59000000    76.62000000   -14.45000000
   N     58.93000000    77.59000000   -15.33000000
   H     65.83000000    75.85000000   -14.89000000
   H     64.54000000    78.28000000   -14.02000000
   H     63.54000000    75.48000000   -14.20000000
   H     63.57000000    76.39000000   -15.60000000
   H     61.95000000    78.03000000   -14.32000000
   H     61.82000000    76.75000000   -13.07000000
   H     61.08000000    75.13000000   -14.41000000
   H     61.18000000    76.07000000   -15.90000000
   H     59.55000000    76.96000000   -13.41000000
   H     59.03000000    75.69000000   -14.56000000
   H     59.15000000    77.38000000   -16.30000000
   H     57.93000000    77.43000000   -15.37000000
   H     59.01000000    78.57000000   -15.10000000
   N     64.95000000    76.07000000   -11.65000000
   C     65.32000000    74.73000000   -12.06000000
   C     66.58000000    74.29000000   -11.34000000
   O     66.67000000    74.69000000   -10.18000000
   C     64.16000000    73.75000000   -11.87000000
   C     64.54000000    72.40000000   -12.46000000
   O     65.31000000    71.70000000   -11.78000000
   O     64.13000000    71.94000000   -13.55000000
   H     64.95000000    76.28000000   -10.66000000
   H     65.61000000    74.75000000   -13.11000000
   H     63.21000000    74.13000000   -12.25000000
   H     64.09000000    73.58000000   -10.80000000
   N     67.51000000    73.66000000   -12.05000000
   C     68.69000000    73.07000000   -11.45000000
   C     69.34000000    72.02000000   -12.34000000
   O     69.27000000    72.13000000   -13.56000000
   H     67.36000000    73.43000000   -13.03000000
   H     68.38000000    72.81000000   -10.44000000
   H     69.44000000    73.84000000   -11.31000000
   N     70.01000000    71.05000000   -11.71000000
   C     70.82000000    69.99000000   -12.26000000
   C     71.74000000    69.31000000   -11.25000000
   O     71.32000000    68.91000000   -10.16000000
   C     69.88000000    69.06000000   -13.02000000
   C     68.63000000    68.60000000   -12.28000000
   O     67.63000000    69.35000000   -12.32000000
   O     68.71000000    67.53000000   -11.64000000
   H     70.15000000    71.21000000   -10.72000000
   H     71.44000000    70.39000000   -13.06000000
   H     70.50000000    68.18000000   -13.23000000
   H     69.53000000    69.45000000   -13.98000000
   N     73.05000000    69.25000000   -11.47000000
   C     73.90000000    70.19000000   -12.18000000
   C     74.35000000    69.60000000   -13.51000000
   O     75.07000000    70.31000000   -14.21000000
   H     73.56000000    68.86000000   -10.69000000
   H     74.79000000    70.51000000   -11.63000000
   H     73.29000000    71.05000000   -12.47000000
   N     74.08000000    68.32000000   -13.77000000
   C     74.52000000    67.57000000   -14.93000000
   C     75.99000000    67.19000000   -15.06000000
   O     76.73000000    67.64000000   -15.93000000
   C     73.90000000    68.21000000   -16.17000000
   C     72.37000000    68.32000000   -16.11000000
   O     74.00000000    67.42000000   -17.33000000
   H     73.51000000    67.78000000   -13.14000000
   H     74.08000000    66.57000000   -14.87000000
   H     74.28000000    69.22000000   -16.35000000
   H     74.71000000    67.81000000   -17.85000000
   H     72.14000000    69.23000000   -15.56000000
   H     72.01000000    68.41000000   -17.14000000
   H     71.94000000    67.51000000   -15.52000000
   N     76.35000000    66.40000000   -14.05000000
   C     77.60000000    65.68000000   -13.94000000
   C     77.85000000    64.66000000   -15.04000000
   O     77.84000000    63.44000000   -14.85000000
   C     78.82000000    66.50000000   -13.53000000
   C     78.71000000    67.28000000   -12.22000000
   C     80.06000000    65.61000000   -13.50000000
   C     79.82000000    68.29000000   -11.91000000
   H     75.62000000    66.24000000   -13.37000000
   H     77.36000000    65.02000000   -13.11000000
   H     79.10000000    67.25000000   -14.28000000
   H     78.47000000    66.58000000   -11.43000000
   H     77.83000000    67.92000000   -12.32000000
   H     80.32000000    65.00000000   -14.37000000
   H     80.88000000    66.33000000   -13.39000000
   H     80.03000000    64.94000000   -12.64000000
   H     80.67000000    67.78000000   -11.46000000
   H     80.13000000    68.80000000   -12.81000000
   H     79.44000000    69.03000000   -11.20000000
   N     78.08000000    65.10000000   -16.27000000
   C     78.46000000    64.31000000   -17.43000000
   C     79.48000000    65.04000000   -18.29000000
   O     79.71000000    66.25000000   -18.18000000
   C     77.24000000    63.86000000   -18.23000000
   C     76.32000000    64.94000000   -18.79000000
   O     76.33000000    63.03000000   -17.53000000
   H     78.15000000    66.10000000   -16.39000000
   H     78.89000000    63.34000000   -17.17000000
   H     77.58000000    63.27000000   -19.08000000
   H     75.67000000    62.70000000   -18.14000000
   H     75.76000000    65.34000000   -17.95000000
   H     76.90000000    65.80000000   -19.11000000
   H     75.80000000    64.59000000   -19.68000000
   N     80.20000000    64.36000000   -19.17000000
   C     81.22000000    64.88000000   -20.06000000
   C     80.72000000    66.02000000   -20.93000000
   O     79.59000000    65.92000000   -21.41000000
   C     81.88000000    63.81000000   -20.93000000
   C     83.05000000    64.22000000   -21.82000000
   O     82.46000000    62.86000000   -20.06000000
   H     80.03000000    63.36000000   -19.18000000
   H     82.02000000    65.18000000   -19.38000000
   H     81.23000000    63.35000000   -21.66000000
   H     81.79000000    62.17000000   -20.10000000
   H     83.79000000    64.73000000   -21.21000000
   H     83.50000000    63.29000000   -22.18000000
   H     82.82000000    64.87000000   -22.67000000
   N     81.59000000    67.03000000   -21.01000000
   C     81.47000000    68.33000000   -21.62000000
   C     80.02000000    68.71000000   -21.88000000
   O     79.48000000    68.72000000   -22.98000000
   C     82.24000000    68.40000000   -22.94000000
   C     83.75000000    68.21000000   -22.85000000
   C     84.44000000    68.25000000   -24.22000000
   C     85.94000000    68.11000000   -24.03000000
   N     86.37000000    66.72000000   -23.79000000
   H     82.47000000    66.82000000   -20.56000000
   H     82.06000000    69.02000000   -21.02000000
   H     81.97000000    69.27000000   -23.54000000
   H     81.89000000    67.50000000   -23.45000000
   H     83.94000000    67.25000000   -22.36000000
   H     84.19000000    69.01000000   -22.26000000
   H     84.27000000    69.25000000   -24.62000000
   H     83.94000000    67.62000000   -24.95000000
   H     86.34000000    68.68000000   -23.19000000
   H     86.42000000    68.50000000   -24.93000000
   H     87.36000000    66.60000000   -23.89000000
   H     86.19000000    66.35000000   -22.87000000
   H     85.92000000    66.13000000   -24.47000000
   N     79.39000000    68.96000000   -20.73000000
   C     77.96000000    69.15000000   -20.60000000
   C     77.48000000    68.95000000   -19.17000000
   O     76.30000000    68.63000000   -19.03000000
   C     77.55000000    70.48000000   -21.22000000
   C     76.07000000    70.87000000   -21.24000000
   C     75.94000000    72.13000000   -22.08000000
   O     76.81000000    73.03000000   -21.98000000
   O     74.96000000    72.18000000   -22.86000000
   H     79.85000000    68.57000000   -19.92000000
   H     77.42000000    68.38000000   -21.16000000
   H     77.85000000    70.51000000   -22.27000000
   H     78.10000000    71.29000000   -20.74000000
   H     75.78000000    71.07000000   -20.21000000
   H     75.54000000    70.02000000   -21.67000000
   N     78.29000000    69.11000000   -18.12000000
   C     79.62000000    69.67000000   -17.95000000
   H     80.30100000    69.21100000   -18.66700000
   H     79.58600000    70.74600000   -18.11900000
   H     79.97200000    69.47200000   -16.93700000
   H     77.85000000    68.90000000   -17.24000000
  Ca     65.19000000    69.57000000   -13.45200000
   O     62.51000000    69.58000000   -12.87200000
   H     62.04000000    69.07000000   -12.22200000
   H     61.89000000    70.24000000   -13.16200000
   O     63.64000000    69.60000000   -15.54200000
   H     63.22000000    70.30000000   -16.04200000
   H     63.22000000    68.80000000   -15.84200000
   O     66.88000000    71.18000000   -14.76200000
   H     67.75000000    71.00000000   -14.41200000
   H     66.86000000    72.13000000   -14.88200000
   O     64.84000000    68.21000000   -11.05200000
   H     65.65000000    67.79000000   -10.75200000
   H     64.18000000    67.90000000   -10.43200000
   O     66.71000000    68.37000000   -15.28200000
   H     66.96000000    67.44000000   -15.28200000
   H     67.35000000    68.79000000   -15.85200000
   O     64.42000000    66.97000000   -13.84200000
   H     64.10000000    66.62000000   -13.00200000
   H     64.68000000    66.19000000   -14.33200000

Ca 1.00



