%chk=loop4.apoCaM-CA-Ng.Init295.run44.water2.chk
%nprocshared=20
%mem=10GB
%nosave
#b3lyp/svp scf=(tight,noincore,xqc) Test 
#IOP(5/87=12) Density=Current Pop=(MK,readradii) iop(6/33=2) iop(6/42=6)

loop4.apoCaM-CA-Ng.Init295.run44.water2 

   -3  1 
   C     69.85000000    29.27000000    59.11000000
   C     70.80000000    28.54000000    60.05000000
   O     72.00000000    28.61000000    59.83000000
   H     68.96400000    29.58400000    59.66200000
   H     70.34900000    30.14600000    58.69600000
   H     69.55600000    28.60300000    58.30000000
   N     70.34000000    27.94000000    61.15000000
   C     71.12000000    26.99000000    61.92000000
   C     72.09000000    27.61000000    62.92000000
   O     73.03000000    26.93000000    63.29000000
   C     71.61000000    25.83000000    61.06000000
   C     70.59000000    25.31000000    60.05000000
   O     71.00000000    25.19000000    58.87000000
   O     69.37000000    25.19000000    60.29000000
   H     69.34000000    27.93000000    61.24000000
   H     70.34000000    26.54000000    62.54000000
   H     71.98000000    25.11000000    61.79000000
   H     72.49000000    26.21000000    60.54000000
   N     71.96000000    28.90000000    63.23000000
   C     72.88000000    29.72000000    64.00000000
   C     72.58000000    29.72000000    65.49000000
   O     71.46000000    29.98000000    65.91000000
   C     72.91000000    31.14000000    63.44000000
   C     73.28000000    31.13000000    61.96000000
   C     73.72000000    32.16000000    64.24000000
   C     73.11000000    32.43000000    61.19000000
   H     71.18000000    29.39000000    62.82000000
   H     73.92000000    29.43000000    63.86000000
   H     71.86000000    31.45000000    63.48000000
   H     72.80000000    30.37000000    61.34000000
   H     74.31000000    30.81000000    61.86000000
   H     73.42000000    33.16000000    63.94000000
   H     73.38000000    32.02000000    65.27000000
   H     74.79000000    31.96000000    64.15000000
   H     72.05000000    32.70000000    61.17000000
   H     73.75000000    33.25000000    61.52000000
   H     73.44000000    32.10000000    60.21000000
   N     73.51000000    29.37000000    66.39000000
   C     74.94000000    29.30000000    66.20000000
   C     75.49000000    27.89000000    66.10000000
   O     76.65000000    27.65000000    65.78000000
   C     75.81000000    30.01000000    67.23000000
   C     75.66000000    31.52000000    67.39000000
   O     76.64000000    32.28000000    67.50000000
   O     74.50000000    31.95000000    67.60000000
   H     73.04000000    29.11000000    67.26000000
   H     75.20000000    29.84000000    65.29000000
   H     76.85000000    29.74000000    67.03000000
   H     75.51000000    29.47000000    68.12000000
   N     74.64000000    26.89000000    66.37000000
   C     75.00000000    25.52000000    66.06000000
   C     76.28000000    25.07000000    66.77000000
   O     76.35000000    25.06000000    68.00000000
   H     73.71000000    27.00000000    66.73000000
   H     75.11000000    25.33000000    65.00000000
   H     74.16000000    24.90000000    66.36000000
   N     77.15000000    24.54000000    65.91000000
   C     78.41000000    23.91000000    66.25000000
   C     79.65000000    24.29000000    65.45000000
   O     80.77000000    24.00000000    65.85000000
   C     78.16000000    22.41000000    66.18000000
   C     77.42000000    22.00000000    64.91000000
   O     76.38000000    21.32000000    64.93000000
   O     77.81000000    22.37000000    63.78000000
   H     76.86000000    24.52000000    64.94000000
   H     78.64000000    24.13000000    67.30000000
   H     77.55000000    22.09000000    67.03000000
   H     79.10000000    21.85000000    66.19000000
   N     79.46000000    24.99000000    64.33000000
   C     80.53000000    25.36000000    63.43000000
   C     81.05000000    24.28000000    62.50000000
   O     82.14000000    24.44000000    61.94000000
   H     78.51000000    25.09000000    64.00000000
   H     81.38000000    25.79000000    63.97000000
   H     80.20000000    26.16000000    62.76000000
   N     80.34000000    23.17000000    62.31000000
   C     80.58000000    22.08000000    61.38000000
   C     80.93000000    22.56000000    59.98000000
   O     82.04000000    22.35000000    59.52000000
   C     81.58000000    21.12000000    62.03000000
   C     81.05000000    20.46000000    63.30000000
   C     79.99000000    19.41000000    62.96000000
   N     78.70000000    19.75000000    62.96000000
   O     80.32000000    18.27000000    62.64000000
   H     79.44000000    23.18000000    62.75000000
   H     79.72000000    21.46000000    61.14000000
   H     82.50000000    21.67000000    62.19000000
   H     81.75000000    20.37000000    61.26000000
   H     80.71000000    21.15000000    64.08000000
   H     81.88000000    19.88000000    63.68000000
   H     78.39000000    20.70000000    63.11000000
   H     78.07000000    18.97000000    62.86000000
   N     79.97000000    23.23000000    59.32000000
   C     80.14000000    23.83000000    58.02000000
   C     79.53000000    23.01000000    56.89000000
   O     78.58000000    22.26000000    57.11000000
   C     79.61000000    25.26000000    57.94000000
   C     78.09000000    25.26000000    58.03000000
   C     80.15000000    26.19000000    59.03000000
   H     79.07000000    23.22000000    59.77000000
   H     81.22000000    23.94000000    57.88000000
   H     79.77000000    25.59000000    56.91000000
   H     77.75000000    24.50000000    58.74000000
   H     77.64000000    26.15000000    58.47000000
   H     77.78000000    24.97000000    57.03000000
   H     79.78000000    25.93000000    60.03000000
   H     81.23000000    26.25000000    59.04000000
   H     79.77000000    27.19000000    58.80000000
   N     80.08000000    23.06000000    55.68000000
   C     79.43000000    22.58000000    54.48000000
   C     78.27000000    23.46000000    54.04000000
   O     78.27000000    24.65000000    54.37000000
   C     80.50000000    22.41000000    53.41000000
   C     80.00000000    21.71000000    52.15000000
   N     79.27000000    20.62000000    52.38000000
   O     80.21000000    22.16000000    51.03000000
   H     80.88000000    23.62000000    55.43000000
   H     79.06000000    21.56000000    54.59000000
   H     81.29000000    21.75000000    53.79000000
   H     81.00000000    23.36000000    53.21000000
   H     79.10000000    20.17000000    53.27000000
   H     78.92000000    20.17000000    51.54000000
   N     77.41000000    23.00000000    53.12000000
   C     76.27000000    23.74000000    52.62000000
   C     74.95000000    23.02000000    52.85000000
   O     74.84000000    21.94000000    52.28000000
   C     76.42000000    24.09000000    51.14000000
   C     77.29000000    25.26000000    50.74000000
   C     78.65000000    25.45000000    51.03000000
   C     76.55000000    26.26000000    50.11000000
   C     79.27000000    26.68000000    50.74000000
   C     77.19000000    27.43000000    49.68000000
   C     78.53000000    27.66000000    50.06000000
   O     79.12000000    28.87000000    49.88000000
   H     77.57000000    22.09000000    52.71000000
   H     76.25000000    24.71000000    53.13000000
   H     75.43000000    24.30000000    50.72000000
   H     76.76000000    23.24000000    50.55000000
   H     79.27000000    24.62000000    51.33000000
   H     75.49000000    26.15000000    49.97000000
   H     80.31000000    26.79000000    50.99000000
   H     76.63000000    28.18000000    49.14000000
   H     78.56000000    29.35000000    49.26000000
   N     74.03000000    23.48000000    53.71000000
   C     72.79000000    22.76000000    53.88000000
   C     71.71000000    22.93000000    52.82000000
   O     71.34000000    21.97000000    52.16000000
   C     72.39000000    22.78000000    55.35000000
   C     71.21000000    21.90000000    55.76000000
   C     70.86000000    22.04000000    57.23000000
   O     69.90000000    22.74000000    57.60000000
   O     71.54000000    21.41000000    58.07000000
   H     74.25000000    24.35000000    54.19000000
   H     73.01000000    21.70000000    53.76000000
   H     72.12000000    23.80000000    55.65000000
   H     73.14000000    22.41000000    56.05000000
   H     71.40000000    20.84000000    55.57000000
   H     70.37000000    22.11000000    55.10000000
   N     71.07000000    24.08000000    52.59000000
   C     71.16000000    25.37000000    53.25000000
   C     72.38000000    26.20000000    52.86000000
   O     72.89000000    26.15000000    51.74000000
   C     69.90000000    26.20000000    52.99000000
   C     68.60000000    25.50000000    53.38000000
   C     68.50000000    25.36000000    54.89000000
   O     68.05000000    24.28000000    55.32000000
   O     69.03000000    26.13000000    55.73000000
   H     70.31000000    24.02000000    51.93000000
   H     71.25000000    25.22000000    54.32000000
   H     69.82000000    26.38000000    51.92000000
   H     69.89000000    27.11000000    53.58000000
   H     68.56000000    24.51000000    52.92000000
   H     67.70000000    26.02000000    53.03000000
   N     72.84000000    27.03000000    53.80000000
   C     73.88000000    28.02000000    53.77000000
   H     74.75800000    27.60900000    53.27200000
   H     73.53200000    28.89700000    53.22500000
   H     74.14100000    28.30400000    54.78900000
   H     72.27000000    27.16000000    54.63000000
  Ca     68.37000000    24.78000000    57.91000000
   O     67.46000000    22.13000000    58.21000000
   H     67.44000000    21.79000000    59.10000000
   H     68.27000000    21.79000000    57.83000000
   O     66.63000000    24.27000000    59.88000000
   H     66.94000000    24.48000000    60.77000000
   H     65.70000000    24.47000000    59.91000000

Ca 1.00



