%chk=loop4.apoCaM-CA-Ng.Init295.run47.water2.chk
%nprocshared=20
%mem=10GB
%nosave
#b3lyp/svp scf=(tight,noincore,xqc) Test 
#IOP(5/87=12) Density=Current Pop=(MK,readradii) iop(6/33=2) iop(6/42=6)

loop4.apoCaM-CA-Ng.Init295.run47.water2 

   -3  1 
   C     70.68000000    39.59000000    50.00000000
   C     70.59000000    38.57000000    51.13000000
   O     71.51000000    38.41000000    51.94000000
   H     71.72600000    39.83400000    49.81400000
   H     70.23900000    39.17100000    49.09600000
   H     70.14100000    40.49500000    50.28200000
   N     69.40000000    38.00000000    51.35000000
   C     69.17000000    36.89000000    52.25000000
   C     69.57000000    37.13000000    53.70000000
   O     70.22000000    36.32000000    54.36000000
   C     69.62000000    35.60000000    51.58000000
   C     69.29000000    35.41000000    50.10000000
   O     70.20000000    35.36000000    49.24000000
   O     68.08000000    35.35000000    49.82000000
   H     68.66000000    38.38000000    50.78000000
   H     68.10000000    36.73000000    52.10000000
   H     69.40000000    34.66000000    52.08000000
   H     70.70000000    35.58000000    51.75000000
   N     69.19000000    38.34000000    54.14000000
   C     69.24000000    38.93000000    55.46000000
   C     67.97000000    38.58000000    56.23000000
   O     66.89000000    38.98000000    55.80000000
   C     69.47000000    40.44000000    55.43000000
   C     70.73000000    40.95000000    54.74000000
   C     69.29000000    41.01000000    56.84000000
   C     72.04000000    40.41000000    55.29000000
   H     68.64000000    38.88000000    53.50000000
   H     70.03000000    38.42000000    56.02000000
   H     68.58000000    40.75000000    54.90000000
   H     70.68000000    42.04000000    54.70000000
   H     70.68000000    40.74000000    53.67000000
   H     69.77000000    40.39000000    57.59000000
   H     69.61000000    42.03000000    57.05000000
   H     68.24000000    41.10000000    57.08000000
   H     72.29000000    40.88000000    56.25000000
   H     71.90000000    39.35000000    55.48000000
   H     72.86000000    40.55000000    54.59000000
   N     68.01000000    37.97000000    57.41000000
   C     69.11000000    37.45000000    58.20000000
   C     69.48000000    36.04000000    57.76000000
   O     70.67000000    35.80000000    57.61000000
   C     68.70000000    37.38000000    59.67000000
   C     68.32000000    38.75000000    60.23000000
   O     69.19000000    39.47000000    60.76000000
   O     67.17000000    39.21000000    60.05000000
   H     67.10000000    37.65000000    57.71000000
   H     70.03000000    38.04000000    58.14000000
   H     69.57000000    37.04000000    60.22000000
   H     67.81000000    36.75000000    59.69000000
   N     68.47000000    35.21000000    57.47000000
   C     68.64000000    33.95000000    56.78000000
   C     69.30000000    32.88000000    57.64000000
   O     69.17000000    32.87000000    58.86000000
   H     67.54000000    35.44000000    57.78000000
   H     69.31000000    34.20000000    55.95000000
   H     67.75000000    33.53000000    56.32000000
   N     70.10000000    31.94000000    57.13000000
   C     70.58000000    30.73000000    57.77000000
   C     72.08000000    30.53000000    57.89000000
   O     72.56000000    29.54000000    58.44000000
   C     69.92000000    29.48000000    57.20000000
   C     68.48000000    29.66000000    56.74000000
   O     67.58000000    30.01000000    57.53000000
   O     68.22000000    29.40000000    55.55000000
   H     70.30000000    32.00000000    56.15000000
   H     70.30000000    30.82000000    58.83000000
   H     69.95000000    28.71000000    57.98000000
   H     70.47000000    29.10000000    56.34000000
   N     72.84000000    31.50000000    57.36000000
   C     74.27000000    31.61000000    57.51000000
   C     75.03000000    30.59000000    56.67000000
   O     76.25000000    30.72000000    56.77000000
   H     72.28000000    32.27000000    57.03000000
   H     74.62000000    31.63000000    58.55000000
   H     74.53000000    32.59000000    57.10000000
   N     74.42000000    29.79000000    55.80000000
   C     75.08000000    28.87000000    54.89000000
   C     76.00000000    29.61000000    53.93000000
   O     77.01000000    29.07000000    53.49000000
   C     75.82000000    27.72000000    55.58000000
   C     74.98000000    26.84000000    56.50000000
   C     75.73000000    25.82000000    57.35000000
   N     75.07000000    24.78000000    57.86000000
   O     76.94000000    25.87000000    57.53000000
   H     73.41000000    29.73000000    55.83000000
   H     74.23000000    28.48000000    54.34000000
   H     76.68000000    28.06000000    56.17000000
   H     76.21000000    27.06000000    54.81000000
   H     74.35000000    26.25000000    55.85000000
   H     74.22000000    27.34000000    57.10000000
   H     74.07000000    24.72000000    57.83000000
   H     75.64000000    24.12000000    58.38000000
   N     75.61000000    30.84000000    53.58000000
   C     76.34000000    31.58000000    52.57000000
   C     76.20000000    31.04000000    51.16000000
   O     75.12000000    30.56000000    50.83000000
   C     75.84000000    33.02000000    52.55000000
   C     74.34000000    33.20000000    52.39000000
   C     76.37000000    33.83000000    53.73000000
   H     74.69000000    31.18000000    53.82000000
   H     77.37000000    31.65000000    52.93000000
   H     76.26000000    33.51000000    51.66000000
   H     74.17000000    34.25000000    52.62000000
   H     74.03000000    33.12000000    51.35000000
   H     73.81000000    32.52000000    53.07000000
   H     75.70000000    33.54000000    54.53000000
   H     77.41000000    33.69000000    54.02000000
   H     76.10000000    34.86000000    53.50000000
   N     77.23000000    31.16000000    50.31000000
   C     77.36000000    30.56000000    49.00000000
   C     77.70000000    31.60000000    47.93000000
   O     78.42000000    32.53000000    48.27000000
   C     78.38000000    29.44000000    49.14000000
   C     79.14000000    28.99000000    47.90000000
   N     78.53000000    28.41000000    46.86000000
   O     80.34000000    29.22000000    47.76000000
   H     77.97000000    31.79000000    50.57000000
   H     76.44000000    30.09000000    48.68000000
   H     77.91000000    28.53000000    49.53000000
   H     79.21000000    29.73000000    49.78000000
   H     77.54000000    28.20000000    46.83000000
   H     79.14000000    28.14000000    46.10000000
   N     77.23000000    31.47000000    46.69000000
   C     77.36000000    32.41000000    45.60000000
   C     76.10000000    32.43000000    44.75000000
   O     76.07000000    32.28000000    43.53000000
   C     78.61000000    32.05000000    44.80000000
   C     79.83000000    32.91000000    45.01000000
   C     80.96000000    32.42000000    45.68000000
   C     79.82000000    34.30000000    44.81000000
   C     82.10000000    33.21000000    45.89000000
   C     80.90000000    35.16000000    45.04000000
   C     82.06000000    34.58000000    45.59000000
   O     83.07000000    35.39000000    46.03000000
   H     76.41000000    30.88000000    46.59000000
   H     77.45000000    33.44000000    45.94000000
   H     78.36000000    32.23000000    43.75000000
   H     78.81000000    31.00000000    44.97000000
   H     81.06000000    31.40000000    46.01000000
   H     78.98000000    34.77000000    44.32000000
   H     83.00000000    32.89000000    46.39000000
   H     80.88000000    36.21000000    44.77000000
   H     83.07000000    36.23000000    45.56000000
   N     74.96000000    32.54000000    45.43000000
   C     73.61000000    32.46000000    44.90000000
   C     73.21000000    33.41000000    43.78000000
   O     72.72000000    32.83000000    42.82000000
   C     72.58000000    32.48000000    46.02000000
   C     71.12000000    32.38000000    45.60000000
   C     70.13000000    32.41000000    46.76000000
   O     70.21000000    31.45000000    47.55000000
   O     69.34000000    33.36000000    46.94000000
   H     75.01000000    32.67000000    46.43000000
   H     73.57000000    31.47000000    44.44000000
   H     72.71000000    33.38000000    46.62000000
   H     72.67000000    31.60000000    46.65000000
   H     70.89000000    31.56000000    44.92000000
   H     70.84000000    33.23000000    44.98000000
   N     73.38000000    34.74000000    43.78000000
   C     73.56000000    35.64000000    44.89000000
   C     74.96000000    35.74000000    45.47000000
   O     75.95000000    35.55000000    44.77000000
   C     73.13000000    37.04000000    44.45000000
   C     71.74000000    37.10000000    43.82000000
   C     70.65000000    36.56000000    44.74000000
   O     69.78000000    35.71000000    44.47000000
   O     70.78000000    36.79000000    45.97000000
   H     73.43000000    35.19000000    42.87000000
   H     72.85000000    35.35000000    45.66000000
   H     73.84000000    37.42000000    43.72000000
   H     73.16000000    37.70000000    45.31000000
   H     71.72000000    36.49000000    42.92000000
   H     71.49000000    38.09000000    43.45000000
   N     75.08000000    36.19000000    46.72000000
   C     76.29000000    36.73000000    47.31000000
   H     77.05800000    36.82300000    46.54200000
   H     76.08100000    37.71200000    47.73500000
   H     76.64200000    36.06100000    48.09500000
   H     74.22000000    36.35000000    47.23000000
  Ca     68.61000000    35.80000000    47.07000000
   O     66.26000000    36.52000000    48.18000000
   H     66.39000000    36.27000000    49.10000000
   H     65.32000000    36.66000000    48.11000000
   O     66.69000000    34.28000000    46.01000000
   H     67.05000000    33.49000000    45.61000000
   H     65.76000000    34.09000000    46.14000000

Ca 1.00



