%chk=loop4.apoCaM-CA-Ng.Init31.run88.water4.chk
%nprocshared=20
%mem=10GB
%nosave
#b3lyp/svp scf=(tight,noincore,xqc) Test 
#IOP(5/87=12) Density=Current Pop=(MK,readradii) iop(6/33=2) iop(6/42=6)

loop4.apoCaM-CA-Ng.Init31.run88.water4 

   -3  1 
   C     81.71000000    52.83000000    47.52000000
   C     83.08000000    53.10000000    46.91000000
   O     83.13000000    53.53000000    45.76000000
   H     80.97200000    52.73200000    46.72400000
   H     81.74500000    51.90700000    48.09900000
   H     81.43200000    53.65800000    48.17200000
   N     84.30000000    52.89000000    47.41000000
   C     84.70000000    52.33000000    48.68000000
   C     84.36000000    53.17000000    49.91000000
   O     84.00000000    52.57000000    50.92000000
   C     86.20000000    52.08000000    48.59000000
   C     86.74000000    51.32000000    49.79000000
   O     87.48000000    51.92000000    50.60000000
   O     86.39000000    50.13000000    49.99000000
   H     85.04000000    53.02000000    46.74000000
   H     84.25000000    51.34000000    48.75000000
   H     86.65000000    53.04000000    48.34000000
   H     86.46000000    51.43000000    47.76000000
   N     84.55000000    54.48000000    49.80000000
   C     84.16000000    55.50000000    50.76000000
   C     84.93000000    56.81000000    50.78000000
   O     84.98000000    57.45000000    51.83000000
   C     82.66000000    55.73000000    50.69000000
   C     82.04000000    56.48000000    51.87000000
   C     82.36000000    56.42000000    49.36000000
   C     80.58000000    56.87000000    51.65000000
   H     84.94000000    54.75000000    48.91000000
   H     84.30000000    55.03000000    51.74000000
   H     82.23000000    54.74000000    50.53000000
   H     82.65000000    57.37000000    52.03000000
   H     81.97000000    55.82000000    52.73000000
   H     81.32000000    56.26000000    49.06000000
   H     82.46000000    57.50000000    49.35000000
   H     83.03000000    56.12000000    48.55000000
   H     80.17000000    57.31000000    52.56000000
   H     80.42000000    57.60000000    50.86000000
   H     79.92000000    56.02000000    51.48000000
   N     85.60000000    57.17000000    49.68000000
   C     86.09000000    58.52000000    49.47000000
   C     87.58000000    58.62000000    49.77000000
   O     88.05000000    59.72000000    50.06000000
   C     85.73000000    58.92000000    48.04000000
   C     85.80000000    60.41000000    47.74000000
   O     84.91000000    61.13000000    48.24000000
   O     86.73000000    60.95000000    47.10000000
   H     85.71000000    56.48000000    48.95000000
   H     85.58000000    59.23000000    50.13000000
   H     84.74000000    58.53000000    47.79000000
   H     86.42000000    58.54000000    47.29000000
   N     88.33000000    57.53000000    49.59000000
   C     89.78000000    57.53000000    49.62000000
   C     90.43000000    57.94000000    48.31000000
   O     89.93000000    58.67000000    47.46000000
   H     87.90000000    56.67000000    49.29000000
   H     90.19000000    56.59000000    49.99000000
   H     90.12000000    58.24000000    50.37000000
   N     91.68000000    57.48000000    48.16000000
   C     92.56000000    57.74000000    47.04000000
   C     93.40000000    58.98000000    47.28000000
   O     93.75000000    59.30000000    48.41000000
   C     93.46000000    56.53000000    46.77000000
   C     94.27000000    55.94000000    47.91000000
   O     93.70000000    55.58000000    48.96000000
   O     95.52000000    55.93000000    47.79000000
   H     92.01000000    56.89000000    48.91000000
   H     91.89000000    57.87000000    46.20000000
   H     94.26000000    56.79000000    46.07000000
   H     92.94000000    55.68000000    46.34000000
   N     93.75000000    59.74000000    46.23000000
   C     93.42000000    59.61000000    44.83000000
   C     94.38000000    60.49000000    44.04000000
   O     94.48000000    61.66000000    44.40000000
   H     94.44000000    60.46000000    46.42000000
   H     92.36000000    59.84000000    44.71000000
   H     93.48000000    58.55000000    44.57000000
   N     95.01000000    60.08000000    42.94000000
   C     94.78000000    58.87000000    42.18000000
   C     93.39000000    58.40000000    41.79000000
   O     92.37000000    59.06000000    41.96000000
   C     95.66000000    57.82000000    42.87000000
   C     97.12000000    58.06000000    43.21000000
   C     98.12000000    58.30000000    42.08000000
   N     98.02000000    59.39000000    41.33000000
   O     99.04000000    57.51000000    41.87000000
   H     95.65000000    60.80000000    42.67000000
   H     95.44000000    58.98000000    41.31000000
   H     95.68000000    56.91000000    42.28000000
   H     95.12000000    57.58000000    43.78000000
   H     97.48000000    57.23000000    43.81000000
   H     97.18000000    58.96000000    43.83000000
   H     97.58000000    60.20000000    41.75000000
   H     98.75000000    59.40000000    40.63000000
   N     93.33000000    57.13000000    41.37000000
   C     92.18000000    56.29000000    41.10000000
   C     92.49000000    55.32000000    39.97000000
   O     93.58000000    55.12000000    39.45000000
   C     91.90000000    55.45000000    42.35000000
   C     91.35000000    56.31000000    43.48000000
   C     93.11000000    54.66000000    42.83000000
   H     94.19000000    56.66000000    41.13000000
   H     91.30000000    56.87000000    40.83000000
   H     91.11000000    54.73000000    42.15000000
   H     90.58000000    57.00000000    43.13000000
   H     91.02000000    55.71000000    44.33000000
   H     92.10000000    57.00000000    43.86000000
   H     93.77000000    54.28000000    42.05000000
   H     93.68000000    55.21000000    43.57000000
   H     92.66000000    53.81000000    43.35000000
   N     91.43000000    54.60000000    39.59000000
   C     91.38000000    53.79000000    38.39000000
   C     91.85000000    52.35000000    38.53000000
   O     92.13000000    51.73000000    37.51000000
   C     89.98000000    54.05000000    37.83000000
   C     90.11000000    54.39000000    36.35000000
   N     90.96000000    53.63000000    35.67000000
   O     89.47000000    55.29000000    35.80000000
   H     90.49000000    54.87000000    39.85000000
   H     92.07000000    54.33000000    37.75000000
   H     89.44000000    54.85000000    38.34000000
   H     89.40000000    53.13000000    37.87000000
   H     91.52000000    52.88000000    36.05000000
   H     90.84000000    53.64000000    34.67000000
   N     91.92000000    51.92000000    39.80000000
   C     92.39000000    50.66000000    40.34000000
   C     91.79000000    50.23000000    41.67000000
   O     91.18000000    51.07000000    42.33000000
   C     93.91000000    50.53000000    40.33000000
   C     94.68000000    51.46000000    41.23000000
   C     94.77000000    51.25000000    42.61000000
   C     95.26000000    52.62000000    40.70000000
   C     95.55000000    52.11000000    43.39000000
   C     96.12000000    53.43000000    41.45000000
   C     96.20000000    53.23000000    42.84000000
   O     96.89000000    54.18000000    43.54000000
   H     91.48000000    52.50000000    40.50000000
   H     92.05000000    49.85000000    39.69000000
   H     94.23000000    50.78000000    39.32000000
   H     94.19000000    49.49000000    40.51000000
   H     94.30000000    50.39000000    43.06000000
   H     95.05000000    52.89000000    39.67000000
   H     95.61000000    52.09000000    44.47000000
   H     96.38000000    54.41000000    41.09000000
   H     96.80000000    54.06000000    44.49000000
   N     91.86000000    48.95000000    42.07000000
   C     91.29000000    48.43000000    43.29000000
   C     89.84000000    48.11000000    42.99000000
   O     89.55000000    47.49000000    41.97000000
   C     92.10000000    47.23000000    43.78000000
   C     91.67000000    46.63000000    45.11000000
   C     92.73000000    45.65000000    45.60000000
   O     92.40000000    44.44000000    45.56000000
   O     93.92000000    45.96000000    45.81000000
   H     92.41000000    48.31000000    41.52000000
   H     91.26000000    49.13000000    44.14000000
   H     93.11000000    47.60000000    43.93000000
   H     92.01000000    46.46000000    43.01000000
   H     90.71000000    46.12000000    44.99000000
   H     91.47000000    47.35000000    45.90000000
   N     88.92000000    48.51000000    43.87000000
   C     87.49000000    48.31000000    43.74000000
   C     86.96000000    49.21000000    42.63000000
   O     86.30000000    50.21000000    42.90000000
   C     86.81000000    48.56000000    45.08000000
   C     86.92000000    47.42000000    46.08000000
   C     86.26000000    47.73000000    47.42000000
   O     85.08000000    48.13000000    47.51000000
   O     86.82000000    47.46000000    48.50000000
   H     89.27000000    49.07000000    44.63000000
   H     87.23000000    47.30000000    43.44000000
   H     85.74000000    48.70000000    44.91000000
   H     87.18000000    49.43000000    45.63000000
   H     87.96000000    47.22000000    46.34000000
   H     86.48000000    46.50000000    45.69000000
   N     87.24000000    48.97000000    41.35000000
   C     86.96000000    49.81000000    40.21000000
   H     86.14300000    50.49000000    40.45200000
   H     87.84900000    50.38700000    39.95600000
   H     86.67500000    49.18800000    39.36100000
   H     87.93000000    48.23000000    41.25000000
  Ca     84.78000000    47.94000000    50.20000000
   O     84.18000000    45.58000000    48.92000000
   H     84.74000000    44.87000000    49.24000000
   H     83.30000000    45.30000000    49.15000000
   O     84.09000000    49.85000000    51.78000000
   H     84.46000000    50.73000000    51.68000000
   H     83.38000000    49.97000000    52.41000000
   O     86.52000000    47.45000000    51.98000000
   H     86.75000000    48.21000000    52.52000000
   H     86.97000000    46.72000000    52.40000000
   O     83.98000000    45.79000000    51.89000000
   H     84.15000000    44.87000000    51.71000000
   H     83.48000000    45.79000000    52.71000000

Ca 1.00



