%chk=loop1.holoCaM.run97.water2.chk
%nprocshared=20
%mem=10GB
%nosave
#b3lyp/svp scf=(tight,noincore,xqc) Test 
#IOP(5/87=12) Density=Current Pop=(MK,readradii) iop(6/33=2) iop(6/42=6)

loop1.holoCaM.run97.water2 

   0  1 
   C     26.97000000    64.09000000    12.73000000
   C     25.55000000    64.21000000    13.27000000
   O     24.63000000    63.97000000    12.49000000
   H     27.65400000    63.87800000    13.55200000
   H     27.01500000    63.28000000    12.00300000
   H     27.25700000    65.02600000    12.25100000
   N     25.43000000    64.58000000    14.55000000
   C     24.19000000    64.51000000    15.30000000
   C     23.81000000    65.94000000    15.64000000
   O     24.75000000    66.70000000    15.86000000
   C     24.25000000    63.60000000    16.53000000
   C     22.86000000    63.43000000    17.11000000
   O     22.23000000    64.40000000    17.58000000
   O     22.34000000    62.29000000    17.04000000
   H     26.28000000    64.70000000    15.09000000
   H     23.36000000    64.08000000    14.75000000
   H     24.94000000    64.01000000    17.27000000
   H     24.66000000    62.63000000    16.25000000
   N     22.56000000    66.35000000    15.38000000
   C     22.21000000    67.74000000    15.53000000
   C     21.78000000    68.15000000    16.94000000
   O     21.59000000    69.34000000    17.17000000
   C     21.29000000    68.18000000    14.39000000
   C     21.90000000    68.06000000    13.00000000
   C     20.98000000    68.62000000    11.92000000
   C     21.63000000    68.68000000    10.53000000
   N     20.80000000    69.39000000     9.54000000
   H     21.86000000    65.62000000    15.28000000
   H     23.09000000    68.38000000    15.46000000
   H     20.94000000    69.20000000    14.57000000
   H     20.41000000    67.54000000    14.48000000
   H     22.22000000    67.03000000    12.82000000
   H     22.79000000    68.69000000    12.98000000
   H     20.76000000    69.63000000    12.26000000
   H     20.00000000    68.14000000    11.86000000
   H     21.78000000    67.68000000    10.13000000
   H     22.60000000    69.15000000    10.60000000
   H     21.15000000    69.25000000     8.60000000
   H     19.83000000    69.14000000     9.68000000
   H     21.00000000    70.37000000     9.69000000
   N     21.80000000    67.27000000    17.95000000
   C     21.40000000    67.59000000    19.30000000
   C     22.29000000    66.90000000    20.33000000
   O     22.31000000    67.39000000    21.46000000
   C     19.90000000    67.51000000    19.54000000
   C     19.26000000    66.16000000    19.23000000
   O     20.02000000    65.18000000    19.09000000
   O     18.01000000    66.11000000    19.17000000
   H     21.98000000    66.32000000    17.67000000
   H     21.67000000    68.63000000    19.45000000
   H     19.36000000    68.17000000    18.86000000
   H     19.61000000    67.80000000    20.55000000
   N     22.98000000    65.80000000    20.00000000
   C     23.95000000    65.09000000    20.80000000
   C     23.41000000    64.00000000    21.72000000
   O     23.87000000    63.89000000    22.85000000
   H     22.80000000    65.42000000    19.08000000
   H     24.63000000    65.75000000    21.35000000
   H     24.65000000    64.61000000    20.11000000
   N     22.35000000    63.29000000    21.32000000
   C     21.64000000    62.41000000    22.23000000
   C     22.18000000    61.01000000    22.42000000
   O     22.12000000    60.51000000    23.54000000
   C     20.15000000    62.31000000    21.90000000
   C     19.67000000    62.04000000    20.48000000
   O     18.45000000    62.11000000    20.22000000
   O     20.55000000    61.87000000    19.61000000
   H     21.95000000    63.56000000    20.43000000
   H     21.68000000    62.90000000    23.20000000
   H     19.74000000    63.25000000    22.24000000
   H     19.66000000    61.64000000    22.60000000
   N     22.55000000    60.36000000    21.31000000
   C     22.89000000    58.96000000    21.19000000
   C     22.45000000    58.18000000    19.96000000
   O     22.83000000    57.05000000    19.65000000
   H     22.61000000    60.91000000    20.47000000
   H     22.39000000    58.38000000    21.96000000
   H     23.91000000    58.78000000    21.52000000
   N     21.57000000    58.82000000    19.19000000
   C     20.88000000    58.22000000    18.07000000
   C     20.67000000    59.30000000    17.01000000
   O     20.38000000    60.47000000    17.26000000
   C     19.51000000    57.66000000    18.46000000
   C     19.52000000    56.27000000    19.10000000
   O     18.82000000    58.59000000    19.27000000
   H     21.48000000    59.82000000    19.34000000
   H     21.48000000    57.41000000    17.65000000
   H     18.97000000    57.58000000    17.52000000
   H     18.96000000    59.50000000    18.97000000
   H     20.29000000    56.23000000    19.87000000
   H     18.52000000    55.96000000    19.40000000
   H     19.96000000    55.61000000    18.36000000
   N     20.74000000    58.91000000    15.74000000
   C     20.59000000    59.68000000    14.52000000
   C     19.27000000    59.27000000    13.90000000
   O     18.97000000    58.08000000    13.75000000
   C     21.80000000    59.60000000    13.59000000
   C     22.98000000    60.19000000    14.35000000
   C     21.59000000    60.38000000    12.30000000
   C     24.28000000    60.66000000    13.71000000
   H     20.98000000    57.93000000    15.66000000
   H     20.62000000    60.75000000    14.75000000
   H     22.00000000    58.58000000    13.25000000
   H     23.19000000    59.67000000    15.28000000
   H     22.56000000    61.15000000    14.66000000
   H     21.66000000    61.43000000    12.57000000
   H     22.47000000    60.13000000    11.70000000
   H     20.65000000    60.15000000    11.80000000
   H     24.16000000    61.42000000    12.93000000
   H     25.01000000    61.08000000    14.41000000
   H     24.72000000    59.81000000    13.19000000
   N     18.44000000    60.24000000    13.51000000
   C     17.12000000    60.05000000    12.94000000
   C     17.03000000    60.30000000    11.44000000
   O     18.01000000    60.78000000    10.87000000
   C     16.14000000    61.07000000    13.50000000
   C     15.98000000    61.01000000    15.02000000
   O     16.69000000    62.35000000    13.30000000
   H     18.76000000    61.17000000    13.73000000
   H     16.79000000    59.02000000    13.08000000
   H     15.16000000    60.90000000    13.06000000
   H     17.41000000    62.38000000    13.94000000
   H     15.66000000    60.06000000    15.44000000
   H     16.94000000    61.26000000    15.47000000
   H     15.35000000    61.84000000    15.34000000
   N     15.92000000    59.94000000    10.80000000
   C     15.70000000    60.21000000     9.39000000
   C     15.91000000    61.69000000     9.06000000
   O     16.53000000    62.02000000     8.06000000
   C     14.30000000    59.71000000     9.05000000
   C     14.07000000    59.84000000     7.55000000
   O     14.26000000    58.33000000     9.38000000
   H     15.31000000    59.28000000    11.25000000
   H     16.45000000    59.69000000     8.80000000
   H     13.57000000    60.23000000     9.67000000
   H     13.65000000    57.94000000     8.74000000
   H     14.87000000    59.33000000     7.01000000
   H     13.10000000    59.41000000     7.29000000
   H     14.05000000    60.88000000     7.24000000
   N     15.54000000    62.56000000    10.01000000
   C     15.57000000    64.00000000     9.92000000
   C     16.96000000    64.59000000    10.08000000
   O     17.17000000    65.77000000     9.80000000
   C     14.64000000    64.52000000    11.02000000
   C     13.18000000    64.09000000    10.96000000
   C     12.50000000    64.38000000     9.62000000
   C     10.99000000    64.13000000     9.69000000
   N     10.45000000    64.67000000     8.43000000
   H     15.10000000    62.21000000    10.85000000
   H     15.19000000    64.21000000     8.92000000
   H     14.60000000    65.60000000    11.03000000
   H     15.03000000    64.16000000    11.97000000
   H     12.67000000    64.40000000    11.88000000
   H     13.06000000    63.01000000    11.07000000
   H     12.93000000    63.68000000     8.91000000
   H     12.73000000    65.41000000     9.37000000
   H     10.52000000    64.60000000    10.55000000
   H     10.75000000    63.07000000     9.71000000
   H      9.50000000    64.34000000     8.38000000
   H     10.59000000    65.67000000     8.48000000
   H     10.97000000    64.28000000     7.66000000
   N     17.93000000    63.86000000    10.63000000
   C     19.36000000    64.10000000    10.74000000
   C     20.20000000    63.39000000     9.70000000
   O     21.30000000    63.83000000     9.35000000
   C     19.76000000    63.64000000    12.14000000
   C     19.25000000    64.58000000    13.23000000
   C     19.58000000    64.13000000    14.65000000
   O     19.25000000    62.98000000    14.99000000
   O     19.97000000    64.94000000    15.52000000
   H     17.69000000    62.93000000    10.95000000
   H     19.48000000    65.18000000    10.62000000
   H     20.83000000    63.49000000    12.28000000
   H     19.41000000    62.61000000    12.23000000
   H     18.16000000    64.63000000    13.13000000
   H     19.68000000    65.55000000    12.98000000
   N     19.72000000    62.26000000     9.18000000
   C     20.47000000    61.47000000     8.22000000
   H     21.45400000    61.24100000     8.62900000
   H     19.93600000    60.54200000     8.01700000
   H     20.58400000    62.03400000     7.29400000
   H     18.85000000    61.89000000     9.54000000
  Ca     19.88000000    63.18000000    17.53000000
   O     17.80000000    61.18000000    17.93000000
   H     17.80000000    61.47000000    18.84000000
   H     17.01000000    60.66000000    17.84000000
   O     17.43000000    64.28000000    17.39000000
   H     17.46000000    65.11000000    17.86000000
   H     16.57000000    63.92000000    17.59000000

Ca 1.00



