%chk=loop4.apoCaM-CA-Ng.Init31.run2.water7.chk
%nprocshared=20
%mem=10GB
%nosave
#b3lyp/svp scf=(tight,noincore,xqc) Test 
#IOP(5/87=12) Density=Current Pop=(MK,readradii) iop(6/33=2) iop(6/42=6)

loop4.apoCaM-CA-Ng.Init31.run2.water7 

   -3  1 
   C     46.35000000    47.39000000    35.54000000
   C     47.35000000    47.52000000    36.68000000
   O     48.54000000    47.47000000    36.38000000
   H     45.48200000    48.01600000    35.74600000
   H     46.81600000    47.71100000    34.60900000
   H     46.03400000    46.35100000    35.45000000
   N     47.12000000    47.97000000    37.91000000
   C     45.95000000    48.44000000    38.63000000
   C     46.22000000    49.60000000    39.58000000
   O     45.39000000    49.88000000    40.44000000
   C     45.27000000    47.33000000    39.42000000
   C     45.06000000    45.98000000    38.75000000
   O     44.04000000    45.76000000    38.06000000
   O     45.88000000    45.05000000    38.95000000
   H     47.97000000    47.82000000    38.43000000
   H     45.21000000    48.83000000    37.93000000
   H     44.27000000    47.62000000    39.74000000
   H     45.98000000    47.16000000    40.23000000
   N     47.44000000    50.14000000    39.59000000
   C     47.92000000    51.34000000    40.23000000
   C     48.53000000    51.17000000    41.62000000
   O     48.64000000    52.08000000    42.44000000
   C     48.92000000    52.06000000    39.33000000
   C     49.21000000    53.53000000    39.65000000
   C     50.21000000    51.29000000    39.07000000
   C     49.77000000    54.33000000    38.47000000
   H     48.00000000    49.83000000    38.81000000
   H     47.07000000    52.01000000    40.35000000
   H     48.47000000    52.22000000    38.35000000
   H     49.95000000    53.52000000    40.45000000
   H     48.31000000    54.03000000    40.00000000
   H     50.69000000    51.71000000    38.18000000
   H     50.83000000    51.47000000    39.95000000
   H     50.03000000    50.24000000    38.86000000
   H     50.71000000    53.91000000    38.11000000
   H     48.97000000    54.51000000    37.75000000
   H     50.09000000    55.29000000    38.87000000
   N     49.01000000    49.95000000    41.87000000
   C     49.54000000    49.53000000    43.15000000
   C     49.15000000    48.10000000    43.48000000
   O     48.99000000    47.73000000    44.64000000
   C     51.06000000    49.62000000    43.10000000
   C     51.67000000    49.83000000    44.48000000
   O     50.96000000    50.19000000    45.44000000
   O     52.90000000    49.64000000    44.60000000
   H     48.82000000    49.27000000    41.15000000
   H     49.10000000    50.14000000    43.94000000
   H     51.40000000    50.39000000    42.40000000
   H     51.36000000    48.62000000    42.78000000
   N     49.00000000    47.25000000    42.46000000
   C     48.97000000    45.80000000    42.55000000
   C     50.29000000    45.16000000    42.95000000
   O     51.36000000    45.74000000    43.10000000
   H     49.36000000    47.63000000    41.59000000
   H     48.65000000    45.45000000    41.56000000
   H     48.14000000    45.50000000    43.19000000
   N     50.25000000    43.85000000    43.17000000
   C     51.45000000    43.06000000    43.37000000
   C     51.63000000    42.99000000    44.88000000
   O     50.73000000    43.16000000    45.70000000
   C     51.33000000    41.70000000    42.69000000
   C     50.73000000    41.68000000    41.29000000
   O     50.13000000    40.61000000    41.05000000
   O     51.08000000    42.50000000    40.41000000
   H     49.35000000    43.40000000    43.21000000
   H     52.26000000    43.60000000    42.89000000
   H     50.59000000    41.16000000    43.28000000
   H     52.24000000    41.10000000    42.70000000
   N     52.80000000    42.70000000    45.44000000
   C     54.09000000    42.24000000    44.98000000
   C     55.21000000    42.84000000    45.83000000
   O     54.95000000    43.27000000    46.95000000
   H     52.84000000    42.64000000    46.45000000
   H     54.31000000    42.22000000    43.91000000
   H     54.20000000    41.21000000    45.31000000
   N     56.47000000    42.92000000    45.41000000
   C     57.11000000    42.79000000    44.11000000
   C     56.42000000    43.58000000    43.01000000
   O     55.40000000    44.25000000    43.21000000
   C     57.25000000    41.33000000    43.71000000
   C     57.81000000    40.37000000    44.75000000
   C     56.88000000    39.79000000    45.81000000
   N     56.00000000    38.84000000    45.49000000
   O     56.94000000    40.18000000    46.98000000
   H     57.06000000    43.40000000    46.07000000
   H     58.08000000    43.27000000    44.23000000
   H     57.88000000    41.29000000    42.82000000
   H     56.28000000    40.92000000    43.44000000
   H     58.67000000    40.85000000    45.23000000
   H     58.24000000    39.44000000    44.39000000
   H     56.00000000    38.49000000    44.55000000
   H     55.72000000    38.20000000    46.23000000
   N     57.02000000    43.62000000    41.82000000
   C     56.53000000    44.22000000    40.60000000
   C     57.66000000    44.89000000    39.82000000
   O     58.75000000    44.37000000    39.63000000
   C     55.78000000    43.17000000    39.79000000
   C     54.51000000    42.64000000    40.44000000
   C     56.66000000    42.07000000    39.18000000
   H     57.96000000    43.27000000    41.74000000
   H     55.81000000    45.01000000    40.83000000
   H     55.53000000    43.70000000    38.87000000
   H     54.65000000    42.00000000    41.31000000
   H     53.84000000    43.46000000    40.70000000
   H     53.97000000    42.02000000    39.72000000
   H     57.23000000    41.55000000    39.95000000
   H     56.02000000    41.45000000    38.55000000
   H     57.44000000    42.47000000    38.54000000
   N     57.37000000    46.01000000    39.16000000
   C     58.32000000    46.55000000    38.20000000
   C     57.94000000    46.31000000    36.75000000
   O     58.79000000    46.05000000    35.90000000
   C     58.47000000    47.99000000    38.67000000
   C     59.12000000    48.02000000    40.05000000
   N     58.42000000    47.85000000    41.18000000
   O     60.32000000    48.28000000    40.14000000
   H     56.46000000    46.45000000    39.20000000
   H     59.29000000    46.05000000    38.28000000
   H     57.49000000    48.47000000    38.76000000
   H     58.91000000    48.74000000    38.01000000
   H     57.43000000    47.66000000    41.18000000
   H     58.87000000    48.17000000    42.02000000
   N     56.65000000    46.52000000    36.48000000
   C     55.90000000    46.21000000    35.28000000
   C     55.79000000    44.74000000    34.93000000
   O     56.39000000    43.91000000    35.61000000
   C     56.36000000    47.13000000    34.15000000
   C     56.75000000    46.56000000    32.80000000
   C     57.70000000    45.54000000    32.74000000
   C     56.15000000    47.09000000    31.65000000
   C     58.04000000    45.05000000    31.47000000
   C     56.49000000    46.58000000    30.39000000
   C     57.42000000    45.52000000    30.30000000
   O     57.66000000    44.93000000    29.09000000
   H     56.08000000    46.99000000    37.17000000
   H     54.87000000    46.53000000    35.40000000
   H     57.21000000    47.75000000    34.43000000
   H     55.57000000    47.87000000    34.01000000
   H     58.14000000    45.13000000    33.64000000
   H     55.38000000    47.84000000    31.76000000
   H     58.71000000    44.21000000    31.37000000
   H     55.94000000    46.94000000    29.53000000
   H     57.05000000    45.25000000    28.42000000
   N     54.95000000    44.48000000    33.92000000
   C     54.61000000    43.17000000    33.39000000
   C     53.11000000    43.04000000    33.18000000
   O     52.63000000    42.60000000    32.13000000
   C     55.55000000    42.71000000    32.28000000
   C     55.44000000    41.29000000    31.74000000
   C     55.45000000    40.12000000    32.71000000
   O     56.30000000    40.24000000    33.62000000
   O     54.69000000    39.13000000    32.65000000
   H     54.58000000    45.27000000    33.42000000
   H     54.90000000    42.58000000    34.26000000
   H     56.58000000    42.78000000    32.61000000
   H     55.57000000    43.43000000    31.46000000
   H     56.26000000    41.10000000    31.04000000
   H     54.60000000    41.15000000    31.05000000
   N     52.33000000    43.44000000    34.18000000
   C     50.91000000    43.71000000    34.14000000
   C     50.67000000    45.21000000    34.01000000
   O     50.00000000    45.70000000    33.10000000
   C     50.34000000    43.10000000    35.42000000
   C     48.84000000    43.36000000    35.48000000
   C     48.08000000    42.53000000    36.50000000
   O     47.79000000    41.36000000    36.19000000
   O     47.90000000    42.83000000    37.70000000
   H     52.80000000    43.51000000    35.07000000
   H     50.36000000    43.26000000    33.31000000
   H     50.80000000    43.56000000    36.30000000
   H     50.61000000    42.07000000    35.63000000
   H     48.40000000    43.27000000    34.49000000
   H     48.58000000    44.41000000    35.64000000
   N     51.21000000    46.04000000    34.90000000
   C     51.41000000    47.43000000    34.56000000
   H     52.38500000    47.55100000    34.08700000
   H     50.63000000    47.75200000    33.87000000
   H     51.36800000    48.03600000    35.46500000
   H     51.84000000    45.69000000    35.61000000
  Ca     45.40000000    42.53000000    39.11000000
   O     46.02000000    43.49000000    41.58000000
   H     46.79000000    43.30000000    42.12000000
   H     45.59000000    44.23000000    42.02000000
   O     43.11000000    41.41000000    38.18000000
   H     42.18000000    41.56000000    38.35000000
   H     43.13000000    40.84000000    37.42000000
   O     47.77000000    41.62000000    40.04000000
   H     48.56000000    41.34000000    40.50000000
   H     48.09000000    41.90000000    39.18000000
   O     45.85000000    40.27000000    37.73000000
   H     46.60000000    40.53000000    37.19000000
   H     45.53000000    39.47000000    37.31000000
   O     42.99000000    43.44000000    40.13000000
   H     42.82000000    43.70000000    41.03000000
   H     42.63000000    44.15000000    39.60000000
   O     44.61000000    40.63000000    40.92000000
   H     43.74000000    40.54000000    41.31000000
   H     45.11000000    39.90000000    41.28000000
   O     44.73000000    43.55000000    36.83000000
   H     44.43000000    43.50000000    35.92000000
   H     44.67000000    44.48000000    37.06000000

Ca 1.00



