%chk=loop1.apoCaM-CA-Ng.Init31.run78.water4.chk
%nprocshared=20
%mem=10GB
%nosave
#b3lyp/svp scf=(tight,noincore,xqc) Test 
#IOP(5/87=12) Density=Current Pop=(MK,readradii) iop(6/33=2) iop(6/42=6)

loop1.apoCaM-CA-Ng.Init31.run78.water4 

   0  1 
   C     63.16000000    30.41000000    39.87000000
   C     62.23000000    29.84000000    38.81000000
   O     61.24000000    30.49000000    38.47000000
   H     64.04500000    30.82600000    39.39000000
   H     62.64400000    31.19500000    40.42300000
   H     63.45800000    29.61800000    40.55600000
   N     62.52000000    28.62000000    38.35000000
   C     61.68000000    27.72000000    37.59000000
   C     61.27000000    26.46000000    38.35000000
   O     61.59000000    26.37000000    39.53000000
   C     62.41000000    27.46000000    36.28000000
   C     61.64000000    26.94000000    35.08000000
   O     60.43000000    26.65000000    35.17000000
   O     62.15000000    26.83000000    33.94000000
   H     63.32000000    28.15000000    38.77000000
   H     60.72000000    28.09000000    37.23000000
   H     63.24000000    26.76000000    36.38000000
   H     62.98000000    28.35000000    35.99000000
   N     60.40000000    25.63000000    37.76000000
   C     59.83000000    24.39000000    38.24000000
   C     60.83000000    23.29000000    38.57000000
   O     60.69000000    22.63000000    39.59000000
   C     58.76000000    23.99000000    37.22000000
   C     57.90000000    22.87000000    37.78000000
   C     56.69000000    22.80000000    36.86000000
   C     55.91000000    21.56000000    37.29000000
   N     54.50000000    21.62000000    36.90000000
   H     60.05000000    25.88000000    36.85000000
   H     59.36000000    24.63000000    39.19000000
   H     59.31000000    23.72000000    36.31000000
   H     58.07000000    24.81000000    37.05000000
   H     57.65000000    23.14000000    38.81000000
   H     58.49000000    21.95000000    37.74000000
   H     56.95000000    22.62000000    35.82000000
   H     56.13000000    23.73000000    36.96000000
   H     55.92000000    21.35000000    38.36000000
   H     56.42000000    20.68000000    36.88000000
   H     54.40000000    21.90000000    35.93000000
   H     54.10000000    20.69000000    36.93000000
   H     53.93000000    22.24000000    37.46000000
   N     61.85000000    22.92000000    37.79000000
   C     62.07000000    23.20000000    36.38000000
   C     63.52000000    23.49000000    36.01000000
   O     64.49000000    23.06000000    36.61000000
   C     61.45000000    22.07000000    35.57000000
   C     60.69000000    22.60000000    34.36000000
   O     60.86000000    23.77000000    33.95000000
   O     59.81000000    21.84000000    33.89000000
   H     62.36000000    22.09000000    38.05000000
   H     61.50000000    24.11000000    36.17000000
   H     60.77000000    21.41000000    36.09000000
   H     62.27000000    21.48000000    35.13000000
   N     63.74000000    24.27000000    34.95000000
   C     65.03000000    24.47000000    34.32000000
   C     65.16000000    25.59000000    33.30000000
   O     65.90000000    26.55000000    33.50000000
   H     62.94000000    24.77000000    34.59000000
   H     65.41000000    23.52000000    33.95000000
   H     65.62000000    24.80000000    35.18000000
   N     64.72000000    25.36000000    32.06000000
   C     64.83000000    26.32000000    30.98000000
   C     66.19000000    26.41000000    30.32000000
   O     66.97000000    25.45000000    30.25000000
   C     63.65000000    26.17000000    30.03000000
   C     62.30000000    26.08000000    30.73000000
   O     61.52000000    27.06000000    30.75000000
   O     61.86000000    24.99000000    31.15000000
   H     64.17000000    24.52000000    31.92000000
   H     64.55000000    27.30000000    31.35000000
   H     63.88000000    25.27000000    29.45000000
   H     63.64000000    27.02000000    29.35000000
   N     66.57000000    27.57000000    29.78000000
   C     65.92000000    28.86000000    29.67000000
   C     65.37000000    29.18000000    28.29000000
   O     64.95000000    30.31000000    28.04000000
   H     67.51000000    27.56000000    29.40000000
   H     66.77000000    29.51000000    29.87000000
   H     65.24000000    29.02000000    30.50000000
   N     65.29000000    28.24000000    27.34000000
   C     64.79000000    28.49000000    26.01000000
   C     65.67000000    29.52000000    25.31000000
   O     65.16000000    30.46000000    24.70000000
   C     63.29000000    28.76000000    25.96000000
   C     62.43000000    27.77000000    26.74000000
   O     62.97000000    28.63000000    24.59000000
   H     65.71000000    27.36000000    27.60000000
   H     64.95000000    27.55000000    25.47000000
   H     63.05000000    29.76000000    26.30000000
   H     63.15000000    29.50000000    24.23000000
   H     62.37000000    27.98000000    27.81000000
   H     61.38000000    27.76000000    26.45000000
   H     62.83000000    26.76000000    26.65000000
   N     67.00000000    29.39000000    25.40000000
   C     68.05000000    30.23000000    24.85000000
   C     67.96000000    29.93000000    23.36000000
   O     68.89000000    29.32000000    22.85000000
   C     68.01000000    31.68000000    25.33000000
   C     67.94000000    31.91000000    26.84000000
   C     69.20000000    32.46000000    24.78000000
   C     68.80000000    30.95000000    27.66000000
   H     67.39000000    28.69000000    26.01000000
   H     68.93000000    29.74000000    25.25000000
   H     67.11000000    32.14000000    24.92000000
   H     66.89000000    31.66000000    27.00000000
   H     68.15000000    32.94000000    27.13000000
   H     69.12000000    33.53000000    25.00000000
   H     70.15000000    32.03000000    25.12000000
   H     69.27000000    32.42000000    23.69000000
   H     68.12000000    30.10000000    27.63000000
   H     69.77000000    30.69000000    27.23000000
   H     68.86000000    31.41000000    28.65000000
   N     66.96000000    30.42000000    22.63000000
   C     66.64000000    30.25000000    21.22000000
   C     66.16000000    31.58000000    20.66000000
   O     65.83000000    32.53000000    21.37000000
   C     65.65000000    29.16000000    20.82000000
   C     64.22000000    29.41000000    21.30000000
   O     65.98000000    27.97000000    21.49000000
   H     66.24000000    30.89000000    23.16000000
   H     67.57000000    30.12000000    20.67000000
   H     65.58000000    29.09000000    19.73000000
   H     66.93000000    28.07000000    21.56000000
   H     64.14000000    29.32000000    22.38000000
   H     63.91000000    30.37000000    20.89000000
   H     63.52000000    28.69000000    20.89000000
   N     66.10000000    31.70000000    19.33000000
   C     65.75000000    32.94000000    18.67000000
   C     64.25000000    33.21000000    18.70000000
   O     63.46000000    32.28000000    18.77000000
   C     66.14000000    33.04000000    17.20000000
   C     67.65000000    33.23000000    17.13000000
   O     65.84000000    31.86000000    16.48000000
   H     66.32000000    30.97000000    18.67000000
   H     66.09000000    33.80000000    19.25000000
   H     65.66000000    33.89000000    16.72000000
   H     66.40000000    31.19000000    16.88000000
   H     67.87000000    34.23000000    17.53000000
   H     68.04000000    32.47000000    17.81000000
   H     68.03000000    33.09000000    16.12000000
   N     63.85000000    34.48000000    18.80000000
   C     62.50000000    34.96000000    18.96000000
   C     61.59000000    34.14000000    19.87000000
   O     60.59000000    33.57000000    19.43000000
   C     62.00000000    35.23000000    17.55000000
   C     62.64000000    36.40000000    16.80000000
   C     62.89000000    37.70000000    17.56000000
   C     63.37000000    38.62000000    16.44000000
   N     63.53000000    40.00000000    16.93000000
   H     64.57000000    35.18000000    18.72000000
   H     62.51000000    35.92000000    19.48000000
   H     60.92000000    35.41000000    17.54000000
   H     62.16000000    34.31000000    16.99000000
   H     61.94000000    36.64000000    16.00000000
   H     63.57000000    36.04000000    16.36000000
   H     63.60000000    37.54000000    18.36000000
   H     61.91000000    38.05000000    17.89000000
   H     62.73000000    38.56000000    15.55000000
   H     64.31000000    38.33000000    15.97000000
   H     64.21000000    40.04000000    17.67000000
   H     63.73000000    40.60000000    16.15000000
   H     62.65000000    40.33000000    17.31000000
   N     62.07000000    33.85000000    21.08000000
   C     61.39000000    32.92000000    21.97000000
   C     62.30000000    32.28000000    23.00000000
   O     62.19000000    31.10000000    23.32000000
   C     60.23000000    33.63000000    22.67000000
   C     59.46000000    32.74000000    23.64000000
   C     58.13000000    33.41000000    23.96000000
   O     58.02000000    34.58000000    24.38000000
   O     57.11000000    32.75000000    23.65000000
   H     62.97000000    34.17000000    21.40000000
   H     60.99000000    32.11000000    21.37000000
   H     59.59000000    34.09000000    21.92000000
   H     60.58000000    34.47000000    23.27000000
   H     60.02000000    32.61000000    24.56000000
   H     59.29000000    31.74000000    23.22000000
   N     63.38000000    32.86000000    23.53000000
   C     63.83000000    34.24000000    23.61000000
   H     64.78400000    34.34100000    23.09200000
   H     63.09200000    34.89100000    23.14100000
   H     63.95300000    34.52300000    24.65600000
   H     63.95000000    32.20000000    24.04000000
  Ca     59.88000000    25.78000000    32.60000000
   O     57.67000000    26.51000000    31.21000000
   H     56.73000000    26.59000000    31.11000000
   H     58.04000000    27.14000000    30.59000000
   O     57.61000000    25.39000000    34.05000000
   H     57.30000000    25.72000000    34.90000000
   H     56.91000000    24.79000000    33.76000000
   O     59.69000000    28.35000000    33.07000000
   H     60.20000000    28.62000000    33.84000000
   H     58.81000000    28.69000000    33.24000000
   O     58.81000000    23.44000000    31.77000000
   H     59.11000000    22.81000000    32.42000000
   H     58.35000000    22.91000000    31.12000000

Ca 1.00



