%chk=loop1.apoCaM-CA-Ng.Init295.run73.water5.chk
%nprocshared=20
%mem=10GB
%nosave
#b3lyp/svp scf=(tight,noincore,xqc) Test 
#IOP(5/87=12) Density=Current Pop=(MK,readradii) iop(6/33=2) iop(6/42=6)

loop1.apoCaM-CA-Ng.Init295.run73.water5 

   0  1 
   C      9.36000000     2.83000000    61.43000000
   C      9.95000000     4.24000000    61.45000000
   O      9.20000000     5.18000000    61.67000000
   H      8.39900000     2.84600000    60.91500000
   H     10.04100000     2.15800000    60.90700000
   H      9.21800000     2.48000000    62.45300000
   N     11.25000000     4.46000000    61.23000000
   C     11.86000000     5.77000000    61.31000000
   C     12.21000000     6.39000000    59.96000000
   O     12.06000000     5.73000000    58.94000000
   C     13.14000000     5.68000000    62.13000000
   C     13.00000000     4.91000000    63.44000000
   O     13.43000000     3.74000000    63.33000000
   O     12.53000000     5.50000000    64.43000000
   H     11.78000000     3.69000000    60.86000000
   H     11.26000000     6.51000000    61.84000000
   H     13.54000000     6.68000000    62.29000000
   H     13.95000000     5.22000000    61.56000000
   N     12.43000000     7.69000000    59.79000000
   C     12.82000000     8.25000000    58.51000000
   C     14.26000000     7.92000000    58.18000000
   O     14.67000000     7.94000000    57.02000000
   C     12.46000000     9.74000000    58.44000000
   C     12.80000000    10.49000000    57.15000000
   C     12.51000000    11.98000000    57.28000000
   C     13.24000000    12.74000000    56.18000000
   N     12.84000000    14.16000000    56.17000000
   H     12.28000000     8.31000000    60.57000000
   H     12.22000000     7.75000000    57.75000000
   H     12.91000000    10.26000000    59.28000000
   H     11.39000000     9.84000000    58.61000000
   H     12.34000000    10.08000000    56.25000000
   H     13.86000000    10.42000000    56.90000000
   H     12.83000000    12.32000000    58.26000000
   H     11.44000000    12.22000000    57.20000000
   H     12.99000000    12.26000000    55.24000000
   H     14.31000000    12.67000000    56.40000000
   H     11.97000000    14.27000000    55.69000000
   H     12.57000000    14.50000000    57.08000000
   H     13.50000000    14.85000000    55.84000000
   N     15.13000000     7.88000000    59.20000000
   C     16.55000000     7.63000000    59.14000000
   C     17.08000000     7.01000000    60.42000000
   O     16.65000000     7.36000000    61.52000000
   C     17.25000000     8.96000000    58.87000000
   C     18.70000000     8.93000000    58.39000000
   O     19.25000000     9.95000000    57.93000000
   O     19.29000000     7.83000000    58.47000000
   H     14.67000000     8.19000000    60.04000000
   H     16.74000000     6.94000000    58.31000000
   H     17.34000000     9.45000000    59.84000000
   H     16.69000000     9.57000000    58.16000000
   N     18.00000000     6.05000000    60.25000000
   C     18.69000000     5.39000000    61.34000000
   C     20.02000000     4.76000000    60.94000000
   O     20.08000000     4.22000000    59.85000000
   H     18.45000000     5.88000000    59.36000000
   H     18.08000000     4.58000000    61.73000000
   H     18.85000000     6.13000000    62.12000000
   N     21.02000000     4.81000000    61.83000000
   C     22.37000000     4.34000000    61.56000000
   C     22.93000000     3.46000000    62.66000000
   O     24.14000000     3.25000000    62.67000000
   C     23.33000000     5.43000000    61.08000000
   C     22.74000000     6.38000000    60.05000000
   O     23.04000000     6.21000000    58.85000000
   O     22.10000000     7.39000000    60.43000000
   H     20.94000000     5.46000000    62.60000000
   H     22.30000000     3.67000000    60.71000000
   H     24.22000000     4.98000000    60.65000000
   H     23.54000000     6.08000000    61.93000000
   N     22.16000000     3.20000000    63.73000000
   C     22.54000000     2.34000000    64.83000000
   C     22.07000000     0.90000000    64.94000000
   O     21.49000000     0.33000000    64.02000000
   H     21.27000000     3.65000000    63.84000000
   H     22.35000000     2.89000000    65.76000000
   H     23.62000000     2.31000000    64.90000000
   N     22.43000000     0.26000000    66.06000000
   C     22.04000000    -1.11000000    66.29000000
   C     22.92000000    -2.27000000    65.85000000
   O     24.13000000    -2.21000000    65.70000000
   C     21.50000000    -1.24000000    67.71000000
   C     20.27000000    -2.12000000    67.95000000
   O     22.57000000    -1.55000000    68.58000000
   H     22.84000000     0.72000000    66.86000000
   H     21.15000000    -1.37000000    65.71000000
   H     21.20000000    -0.23000000    67.99000000
   H     23.06000000    -0.74000000    68.75000000
   H     20.10000000    -2.85000000    67.17000000
   H     20.37000000    -2.61000000    68.92000000
   H     19.38000000    -1.49000000    67.93000000
   N     22.32000000    -3.44000000    65.59000000
   C     22.93000000    -4.70000000    65.20000000
   C     23.47000000    -4.74000000    63.78000000
   O     24.02000000    -5.76000000    63.36000000
   C     22.16000000    -5.94000000    65.62000000
   C     20.88000000    -6.13000000    64.80000000
   C     21.81000000    -5.81000000    67.10000000
   C     20.22000000    -7.48000000    65.06000000
   H     21.32000000    -3.54000000    65.69000000
   H     23.85000000    -4.81000000    65.78000000
   H     22.81000000    -6.81000000    65.47000000
   H     21.10000000    -5.93000000    63.75000000
   H     20.27000000    -5.26000000    65.06000000
   H     21.49000000    -6.77000000    67.50000000
   H     22.75000000    -5.67000000    67.63000000
   H     21.13000000    -5.00000000    67.35000000
   H     19.41000000    -7.53000000    64.33000000
   H     20.84000000    -8.35000000    64.87000000
   H     19.72000000    -7.54000000    66.03000000
   N     23.28000000    -3.73000000    62.93000000
   C     23.80000000    -3.59000000    61.59000000
   C     23.25000000    -4.70000000    60.70000000
   O     22.06000000    -5.01000000    60.74000000
   C     23.59000000    -2.17000000    61.09000000
   C     24.15000000    -1.09000000    62.01000000
   O     24.18000000    -2.07000000    59.81000000
   H     22.62000000    -3.03000000    63.25000000
   H     24.86000000    -3.83000000    61.63000000
   H     22.52000000    -1.96000000    61.12000000
   H     24.99000000    -2.59000000    59.83000000
   H     23.64000000    -1.09000000    62.98000000
   H     25.21000000    -1.29000000    62.14000000
   H     23.95000000    -0.14000000    61.51000000
   N     24.03000000    -5.40000000    59.88000000
   C     23.54000000    -6.33000000    58.87000000
   C     22.94000000    -7.62000000    59.39000000
   O     22.59000000    -8.47000000    58.57000000
   C     24.78000000    -6.68000000    58.04000000
   C     26.08000000    -7.04000000    58.75000000
   O     25.08000000    -5.52000000    57.31000000
   H     24.98000000    -5.07000000    59.79000000
   H     22.78000000    -5.87000000    58.24000000
   H     24.45000000    -7.45000000    57.35000000
   H     25.69000000    -5.76000000    56.61000000
   H     26.56000000    -6.13000000    59.12000000
   H     25.95000000    -7.79000000    59.53000000
   H     26.74000000    -7.56000000    58.05000000
   N     22.74000000    -7.75000000    60.71000000
   C     21.98000000    -8.84000000    61.29000000
   C     20.47000000    -8.68000000    61.34000000
   O     19.95000000    -7.62000000    60.96000000
   C     22.55000000    -9.12000000    62.68000000
   C     23.97000000    -9.69000000    62.69000000
   C     24.47000000    -9.90000000    64.11000000
   C     25.84000000   -10.57000000    64.14000000
   N     26.93000000    -9.64000000    63.80000000
   H     22.94000000    -6.93000000    61.26000000
   H     22.12000000    -9.74000000    60.70000000
   H     21.87000000    -9.75000000    63.24000000
   H     22.54000000    -8.24000000    63.32000000
   H     24.62000000    -9.06000000    62.10000000
   H     23.96000000   -10.68000000    62.22000000
   H     23.74000000   -10.61000000    64.52000000
   H     24.59000000    -8.97000000    64.67000000
   H     25.81000000   -11.50000000    63.58000000
   H     26.10000000   -10.88000000    65.15000000
   H     27.40000000    -9.36000000    64.64000000
   H     27.63000000   -10.13000000    63.26000000
   H     26.68000000    -8.77000000    63.35000000
   N     19.74000000    -9.79000000    61.51000000
   C     18.30000000    -9.68000000    61.54000000
   C     17.65000000   -10.03000000    60.20000000
   O     18.01000000   -10.95000000    59.47000000
   C     17.78000000   -10.69000000    62.56000000
   C     17.72000000   -10.12000000    63.97000000
   C     17.30000000   -11.20000000    64.95000000
   O     18.06000000   -12.17000000    65.18000000
   O     16.26000000   -11.06000000    65.62000000
   H     20.25000000   -10.65000000    61.41000000
   H     17.96000000    -8.70000000    61.85000000
   H     18.45000000   -11.55000000    62.61000000
   H     16.77000000   -11.00000000    62.27000000
   H     17.03000000    -9.27000000    63.99000000
   H     18.67000000    -9.62000000    64.18000000
   N     16.68000000    -9.27000000    59.69000000
   C     15.79000000    -8.34000000    60.36000000
   H     14.84000000    -8.83200000    60.56700000
   H     16.24200000    -8.01500000    61.29700000
   H     15.61800000    -7.47500000    59.71900000
   H     16.50000000    -9.50000000    58.72000000
  Ca     21.83000000     8.84000000    58.25000000
   O     21.22000000     7.48000000    56.06000000
   H     20.69000000     6.69000000    55.94000000
   H     21.87000000     7.44000000    55.36000000
   O     23.89000000     8.31000000    56.75000000
   H     23.79000000     8.01000000    55.85000000
   H     24.84000000     8.27000000    56.91000000
   O     21.35000000    10.79000000    59.94000000
   H     21.06000000    10.92000000    60.85000000
   H     21.70000000    11.64000000    59.68000000
   O     24.12000000     9.57000000    59.31000000
   H     24.76000000     9.24000000    58.68000000
   H     24.63000000     9.82000000    60.07000000
   O     21.79000000    10.81000000    56.51000000
   H     22.57000000    10.80000000    55.95000000
   H     21.37000000    11.66000000    56.32000000

Ca 1.00



