%chk=loop1.apoCaM-CA-Ng.Init293.run46.water6.chk
%nprocshared=20
%mem=10GB
%nosave
#b3lyp/svp scf=(tight,noincore,xqc) Test 
#IOP(5/87=12) Density=Current Pop=(MK,readradii) iop(6/33=2) iop(6/42=6)

loop1.apoCaM-CA-Ng.Init293.run46.water6 

   0  1 
   C     46.27000000    79.81000000   116.09000000
   C     46.53000000    78.99000000   117.35000000
   O     47.45000000    79.23000000   118.14000000
   H     45.48400000    80.53900000   116.28700000
   H     47.18300000    80.33000000   115.80000000
   H     45.95600000    79.14800000   115.28300000
   N     45.64000000    78.03000000   117.61000000
   C     45.64000000    77.22000000   118.80000000
   C     45.06000000    75.82000000   118.65000000
   O     44.58000000    75.12000000   119.54000000
   C     45.06000000    77.92000000   120.03000000
   C     43.85000000    78.77000000   119.68000000
   O     42.78000000    78.20000000   119.34000000
   O     43.88000000    80.00000000   119.88000000
   H     44.74000000    78.08000000   117.14000000
   H     46.67000000    76.96000000   119.05000000
   H     45.79000000    78.66000000   120.35000000
   H     44.78000000    77.35000000   120.92000000
   N     45.11000000    75.25000000   117.44000000
   C     44.37000000    74.06000000   117.06000000
   C     45.22000000    72.88000000   116.60000000
   O     45.38000000    72.62000000   115.41000000
   C     43.24000000    74.40000000   116.09000000
   C     42.17000000    75.33000000   116.67000000
   C     41.01000000    75.56000000   115.71000000
   C     39.76000000    75.94000000   116.50000000
   N     38.62000000    76.25000000   115.61000000
   H     45.57000000    75.86000000   116.78000000
   H     43.92000000    73.63000000   117.95000000
   H     42.79000000    73.48000000   115.73000000
   H     43.73000000    74.92000000   115.26000000
   H     42.68000000    76.25000000   116.95000000
   H     41.73000000    74.88000000   117.55000000
   H     40.83000000    74.64000000   115.13000000
   H     41.30000000    76.34000000   115.01000000
   H     39.98000000    76.59000000   117.34000000
   H     39.41000000    75.02000000   116.96000000
   H     38.81000000    76.95000000   114.91000000
   H     38.28000000    75.47000000   115.07000000
   H     37.83000000    76.57000000   116.15000000
   N     45.85000000    72.08000000   117.46000000
   C     46.17000000    72.26000000   118.86000000
   C     47.54000000    71.70000000   119.19000000
   O     48.07000000    70.79000000   118.55000000
   C     45.14000000    71.49000000   119.68000000
   C     45.02000000    70.02000000   119.31000000
   O     45.65000000    69.17000000   119.98000000
   O     44.15000000    69.65000000   118.49000000
   H     46.32000000    71.31000000   116.99000000
   H     46.15000000    73.31000000   119.14000000
   H     44.18000000    71.95000000   119.42000000
   H     45.34000000    71.60000000   120.74000000
   N     48.35000000    72.25000000   120.09000000
   C     48.26000000    73.57000000   120.69000000
   C     49.52000000    73.95000000   121.46000000
   O     49.89000000    73.18000000   122.35000000
   H     49.10000000    71.63000000   120.36000000
   H     47.40000000    73.42000000   121.34000000
   H     48.01000000    74.32000000   119.94000000
   N     50.20000000    75.06000000   121.18000000
   C     49.82000000    76.15000000   120.31000000
   C     49.95000000    77.52000000   120.96000000
   O     50.85000000    77.95000000   121.68000000
   C     50.67000000    76.13000000   119.04000000
   C     52.18000000    76.01000000   119.17000000
   O     52.83000000    76.18000000   120.22000000
   O     52.79000000    75.86000000   118.09000000
   H     51.12000000    75.00000000   121.59000000
   H     48.77000000    76.05000000   120.04000000
   H     50.42000000    76.95000000   118.36000000
   H     50.34000000    75.28000000   118.44000000
   N     48.95000000    78.34000000   120.63000000
   C     48.73000000    79.74000000   120.95000000
   C     49.68000000    80.78000000   120.38000000
   O     49.26000000    81.92000000   120.16000000
   H     48.19000000    77.99000000   120.06000000
   H     48.65000000    79.93000000   122.02000000
   H     47.79000000    80.11000000   120.54000000
   N     50.92000000    80.43000000   120.03000000
   C     51.85000000    81.31000000   119.34000000
   C     52.18000000    80.94000000   117.90000000
   O     52.29000000    79.74000000   117.66000000
   C     53.17000000    81.35000000   120.09000000
   C     53.77000000    79.99000000   120.44000000
   O     52.77000000    81.97000000   121.30000000
   H     51.26000000    79.53000000   120.33000000
   H     51.51000000    82.35000000   119.32000000
   H     53.88000000    82.07000000   119.68000000
   H     53.57000000    82.36000000   121.67000000
   H     53.86000000    79.32000000   119.59000000
   H     54.76000000    80.12000000   120.88000000
   H     53.21000000    79.48000000   121.22000000
   N     52.29000000    81.88000000   116.96000000
   C     52.57000000    81.71000000   115.55000000
   C     53.76000000    82.54000000   115.10000000
   O     53.69000000    83.75000000   115.35000000
   C     51.36000000    82.06000000   114.68000000
   C     51.75000000    81.93000000   113.21000000
   C     50.64000000    83.35000000   115.08000000
   C     50.55000000    82.01000000   112.26000000
   H     52.19000000    82.83000000   117.29000000
   H     52.85000000    80.67000000   115.40000000
   H     50.57000000    81.33000000   114.82000000
   H     52.31000000    81.02000000   113.00000000
   H     52.44000000    82.75000000   113.00000000
   H     51.15000000    84.14000000   114.52000000
   H     49.60000000    83.27000000   114.79000000
   H     50.81000000    83.66000000   116.11000000
   H     49.62000000    82.41000000   112.67000000
   H     50.78000000    82.59000000   111.37000000
   H     50.34000000    81.03000000   111.83000000
   N     54.70000000    82.03000000   114.31000000
   C     55.89000000    82.67000000   113.80000000
   C     56.36000000    82.20000000   112.43000000
   O     57.15000000    82.95000000   111.87000000
   C     56.99000000    82.51000000   114.84000000
   C     57.47000000    81.07000000   114.98000000
   O     56.61000000    82.97000000   116.12000000
   H     54.63000000    81.02000000   114.23000000
   H     55.60000000    83.71000000   113.61000000
   H     57.74000000    83.20000000   114.46000000
   H     56.51000000    83.92000000   116.04000000
   H     58.32000000    80.93000000   115.65000000
   H     56.68000000    80.43000000   115.37000000
   H     57.87000000    80.75000000   114.01000000
   N     55.87000000    81.04000000   111.98000000
   C     56.28000000    80.39000000   110.75000000
   C     57.77000000    80.09000000   110.72000000
   O     58.62000000    80.43000000   111.54000000
   C     55.91000000    81.28000000   109.57000000
   C     54.51000000    81.88000000   109.62000000
   O     56.04000000    80.45000000   108.43000000
   H     55.31000000    80.39000000   112.50000000
   H     55.74000000    79.43000000   110.72000000
   H     56.62000000    82.10000000   109.47000000
   H     55.67000000    81.00000000   107.73000000
   H     53.68000000    81.18000000   109.51000000
   H     54.40000000    82.55000000   110.48000000
   H     54.46000000    82.63000000   108.83000000
   N     58.24000000    79.29000000   109.75000000
   C     59.62000000    78.88000000   109.58000000
   C     59.92000000    77.52000000   110.19000000
   O     61.04000000    77.33000000   110.66000000
   C     59.85000000    78.92000000   108.07000000
   C     61.29000000    78.93000000   107.58000000
   C     62.17000000    80.08000000   108.06000000
   C     61.51000000    81.45000000   108.18000000
   N     62.46000000    82.54000000   108.50000000
   H     57.53000000    79.04000000   109.07000000
   H     60.21000000    79.66000000   110.06000000
   H     59.51000000    79.86000000   107.63000000
   H     59.28000000    78.15000000   107.55000000
   H     61.24000000    78.96000000   106.50000000
   H     61.82000000    78.01000000   107.86000000
   H     62.99000000    80.06000000   107.34000000
   H     62.44000000    79.78000000   109.07000000
   H     60.70000000    81.45000000   108.90000000
   H     61.05000000    81.66000000   107.21000000
   H     61.97000000    83.42000000   108.54000000
   H     62.98000000    82.40000000   109.35000000
   H     63.16000000    82.65000000   107.79000000
   N     59.06000000    76.51000000   110.29000000
   C     57.66000000    76.40000000   109.92000000
   C     57.27000000    76.71000000   108.48000000
   O     56.44000000    77.58000000   108.25000000
   C     56.76000000    76.73000000   111.11000000
   C     57.00000000    75.88000000   112.35000000
   C     56.03000000    76.11000000   113.49000000
   O     55.05000000    75.36000000   113.69000000
   O     56.16000000    77.09000000   114.25000000
   H     59.51000000    75.61000000   110.36000000
   H     57.52000000    75.32000000   109.91000000
   H     55.72000000    76.68000000   110.77000000
   H     56.89000000    77.78000000   111.38000000
   H     58.01000000    76.06000000   112.73000000
   H     57.03000000    74.81000000   112.14000000
   N     57.84000000    76.02000000   107.49000000
   C     57.46000000    75.98000000   106.09000000
   H     56.61800000    76.65200000   105.92300000
   H     58.30300000    76.29600000   105.47500000
   H     57.17300000    74.96400000   105.82000000
   H     58.43000000    75.23000000   107.70000000
  Ca     54.73000000    75.90000000   116.27900000
   O     55.54000000    78.17000000   117.52900000
   H     56.22000000    78.03000000   118.18900000
   H     55.37000000    79.11000000   117.54900000
   O     52.39000000    75.04000000   115.05900000
   H     51.54000000    75.36000000   115.34900000
   H     52.19000000    74.45000000   114.32900000
   O     55.34000000    75.58000000   118.84900000
   H     54.49000000    75.79000000   119.21900000
   H     55.96000000    75.71000000   119.56900000
   O     55.19000000    73.30000000   116.10900000
   H     56.14000000    73.23000000   116.09900000
   H     54.89000000    72.63000000   115.48900000
   O     53.08000000    78.19000000   115.70900000
   H     52.16000000    77.93000000   115.64900000
   H     53.12000000    78.75000000   116.48900000
   O     57.45000000    75.75000000   116.80900000
   H     58.21000000    76.31000000   116.95900000
   H     57.65000000    74.94000000   117.27900000

Ca 1.00



