%chk=loop3.holoCaM-CaMKII.run54.water2.chk
%nprocshared=20
%mem=10GB
%nosave
#b3lyp/svp scf=(tight,noincore,xqc) Test 
#IOP(5/87=12) Density=Current Pop=(MK,readradii) iop(6/33=2) iop(6/42=6)

loop3.holoCaM-CaMKII.run54.water2 

   0  1 
   C     36.40000000    52.18000000    17.46000000
   C     37.66000000    51.34000000    17.34000000
   O     38.14000000    51.25000000    16.21000000
   H     35.59700000    51.57200000    17.87700000
   H     36.59000000    53.02900000    18.11600000
   H     36.10800000    52.54100000    16.47400000
   N     38.07000000    50.67000000    18.42000000
   C     39.02000000    49.57000000    18.38000000
   C     38.34000000    48.23000000    18.60000000
   O     38.54000000    47.57000000    19.61000000
   C     40.16000000    49.81000000    19.37000000
   C     41.34000000    48.85000000    19.33000000
   O     41.62000000    48.22000000    18.29000000
   O     42.01000000    48.69000000    20.37000000
   H     37.62000000    50.80000000    19.31000000
   H     39.41000000    49.54000000    17.37000000
   H     39.79000000    49.73000000    20.39000000
   H     40.62000000    50.79000000    19.24000000
   N     37.52000000    47.79000000    17.64000000
   C     36.86000000    46.51000000    17.57000000
   C     37.77000000    45.30000000    17.72000000
   O     37.44000000    44.44000000    18.54000000
   C     36.21000000    46.50000000    16.19000000
   C     34.99000000    45.58000000    16.20000000
   C     34.30000000    45.30000000    14.87000000
   C     33.31000000    44.16000000    15.10000000
   N     32.51000000    43.90000000    13.90000000
   H     37.58000000    48.38000000    16.82000000
   H     36.11000000    46.46000000    18.36000000
   H     36.89000000    46.14000000    15.42000000
   H     35.96000000    47.53000000    15.93000000
   H     34.16000000    45.85000000    16.86000000
   H     35.31000000    44.66000000    16.69000000
   H     35.10000000    44.93000000    14.23000000
   H     33.65000000    46.09000000    14.49000000
   H     32.73000000    44.42000000    15.99000000
   H     33.85000000    43.27000000    15.43000000
   H     31.90000000    43.10000000    14.05000000
   H     31.90000000    44.66000000    13.67000000
   H     33.00000000    43.74000000    13.04000000
   N     39.06000000    45.35000000    17.36000000
   C     39.91000000    44.19000000    17.52000000
   C     40.55000000    44.15000000    18.90000000
   O     40.89000000    43.08000000    19.40000000
   C     41.06000000    44.31000000    16.52000000
   C     41.85000000    45.60000000    16.50000000
   O     42.89000000    45.67000000    17.19000000
   O     41.59000000    46.52000000    15.69000000
   H     39.27000000    46.13000000    16.74000000
   H     39.36000000    43.27000000    17.35000000
   H     40.55000000    44.08000000    15.58000000
   H     41.75000000    43.51000000    16.81000000
   N     40.69000000    45.36000000    19.45000000
   C     41.13000000    45.56000000    20.81000000
   C     42.64000000    45.61000000    21.04000000
   O     43.09000000    45.37000000    22.16000000
   H     40.48000000    46.20000000    18.93000000
   H     40.70000000    44.72000000    21.36000000
   H     40.67000000    46.46000000    21.21000000
   N     43.50000000    45.97000000    20.08000000
   C     44.90000000    46.05000000    20.44000000
   C     45.29000000    47.33000000    21.16000000
   O     46.49000000    47.58000000    21.30000000
   C     45.71000000    45.81000000    19.17000000
   C     45.84000000    46.90000000    18.11000000
   N     46.93000000    46.84000000    17.35000000
   O     45.01000000    47.80000000    18.00000000
   H     43.20000000    46.22000000    19.15000000
   H     45.12000000    45.16000000    21.03000000
   H     45.24000000    44.95000000    18.69000000
   H     46.71000000    45.48000000    19.47000000
   H     47.68000000    46.19000000    17.55000000
   H     47.13000000    47.56000000    16.67000000
   N     44.38000000    48.14000000    21.70000000
   C     44.65000000    49.38000000    22.40000000
   C     44.84000000    50.62000000    21.53000000
   O     45.42000000    51.63000000    21.93000000
   H     43.39000000    47.95000000    21.63000000
   H     45.50000000    49.29000000    23.07000000
   H     43.78000000    49.60000000    23.03000000
   N     44.39000000    50.55000000    20.28000000
   C     44.57000000    51.59000000    19.29000000
   C     43.51000000    51.67000000    18.21000000
   O     42.96000000    50.67000000    17.74000000
   C     45.94000000    51.53000000    18.63000000
   C     47.18000000    51.28000000    19.46000000
   C     48.04000000    52.31000000    19.84000000
   C     47.51000000    49.96000000    19.82000000
   C     49.22000000    51.99000000    20.51000000
   C     48.66000000    49.62000000    20.54000000
   C     49.54000000    50.66000000    20.89000000
   O     50.77000000    50.40000000    21.42000000
   H     43.85000000    49.74000000    19.99000000
   H     44.55000000    52.55000000    19.81000000
   H     46.11000000    52.44000000    18.06000000
   H     45.87000000    50.73000000    17.89000000
   H     47.83000000    53.36000000    19.66000000
   H     46.72000000    49.24000000    19.68000000
   H     49.97000000    52.76000000    20.63000000
   H     48.93000000    48.63000000    20.87000000
   H     51.21000000    51.18000000    21.76000000
   N     43.21000000    52.87000000    17.71000000
   C     42.33000000    53.13000000    16.59000000
   C     43.17000000    53.68000000    15.44000000
   O     43.88000000    54.68000000    15.50000000
   C     41.26000000    54.13000000    17.02000000
   C     40.45000000    53.77000000    18.26000000
   C     40.32000000    54.32000000    15.83000000
   C     39.80000000    54.97000000    18.95000000
   H     43.71000000    53.62000000    18.16000000
   H     41.81000000    52.20000000    16.38000000
   H     41.69000000    55.13000000    17.15000000
   H     41.06000000    53.32000000    19.03000000
   H     39.75000000    52.95000000    18.11000000
   H     40.76000000    54.85000000    14.99000000
   H     39.80000000    53.40000000    15.55000000
   H     39.57000000    55.08000000    16.04000000
   H     40.45000000    55.62000000    19.53000000
   H     39.23000000    55.54000000    18.22000000
   H     39.06000000    54.58000000    19.65000000
   N     43.10000000    52.93000000    14.33000000
   C     43.71000000    53.21000000    13.05000000
   C     42.75000000    54.07000000    12.24000000
   O     41.52000000    54.04000000    12.35000000
   C     44.28000000    51.97000000    12.36000000
   O     43.20000000    51.14000000    11.99000000
   H     42.52000000    52.11000000    14.39000000
   H     44.53000000    53.92000000    13.16000000
   H     45.02000000    51.56000000    13.05000000
   H     44.86000000    52.20000000    11.47000000
   H     42.92000000    50.61000000    12.74000000
   N     43.28000000    54.72000000    11.21000000
   C     42.47000000    55.45000000    10.25000000
   C     41.47000000    54.59000000     9.48000000
   O     40.33000000    55.01000000     9.31000000
   C     43.42000000    56.08000000     9.24000000
   H     44.27000000    54.82000000    11.05000000
   H     41.87000000    56.23000000    10.71000000
   H     42.96000000    56.88000000     8.64000000
   H     44.22000000    56.49000000     9.85000000
   H     43.81000000    55.24000000     8.67000000
   N     41.84000000    53.35000000     9.15000000
   C     40.94000000    52.43000000     8.48000000
   C     39.89000000    51.98000000     9.49000000
   O     38.93000000    51.36000000     9.04000000
   C     41.76000000    51.24000000     7.98000000
   H     42.75000000    53.07000000     9.47000000
   H     40.44000000    52.91000000     7.64000000
   H     42.21000000    50.70000000     8.81000000
   H     41.14000000    50.48000000     7.50000000
   H     42.64000000    51.55000000     7.41000000
   N     40.04000000    52.11000000    10.81000000
   C     39.06000000    51.73000000    11.81000000
   C     38.13000000    52.91000000    12.06000000
   O     36.93000000    52.71000000    12.16000000
   C     39.65000000    51.17000000    13.10000000
   C     40.43000000    49.87000000    13.00000000
   C     41.26000000    49.74000000    14.27000000
   O     42.46000000    50.07000000    14.22000000
   O     40.79000000    49.28000000    15.33000000
   H     40.84000000    52.64000000    11.13000000
   H     38.40000000    50.99000000    11.36000000
   H     38.87000000    51.12000000    13.87000000
   H     40.31000000    51.98000000    13.41000000
   H     41.03000000    49.66000000    12.11000000
   H     39.68000000    49.08000000    12.92000000
   N     38.60000000    54.16000000    12.13000000
   C     37.77000000    55.35000000    12.14000000
   H     36.83200000    55.13400000    12.65100000
   H     38.29100000    56.15200000    12.66300000
   H     37.56300000    55.65800000    11.11500000
   H     39.60000000    54.28000000    12.04000000
  Ca     43.16000000    48.41000000    16.31000000
   O     44.83000000    46.96000000    14.56000000
   H     44.76000000    46.02000000    14.41000000
   H     45.13000000    47.31000000    13.72000000
   O     45.22000000    49.84000000    15.48000000
   H     45.99000000    50.34000000    15.76000000
   H     45.42000000    49.59000000    14.58000000

Ca 1.00



