%chk=loop4.apoCaM-CA-Ng.Init31.run30.water4.chk
%nprocshared=20
%mem=10GB
%nosave
#b3lyp/svp scf=(tight,noincore,xqc) Test 
#IOP(5/87=12) Density=Current Pop=(MK,readradii) iop(6/33=2) iop(6/42=6)

loop4.apoCaM-CA-Ng.Init31.run30.water4 

   -3  1 
   C     91.97000000    40.07000000    81.97000000
   C     93.17000000    39.39000000    82.60000000
   O     94.13000000    40.05000000    83.01000000
   H     91.16300000    40.13200000    82.70100000
   H     92.24700000    41.07400000    81.64900000
   H     91.63500000    39.49200000    81.10800000
   N     93.26000000    38.08000000    82.83000000
   C     92.28000000    37.02000000    82.65000000
   C     91.90000000    36.30000000    83.94000000
   O     91.19000000    35.30000000    83.82000000
   C     92.81000000    35.98000000    81.66000000
   C     93.35000000    36.37000000    80.30000000
   O     92.67000000    37.10000000    79.54000000
   O     94.57000000    36.11000000    80.15000000
   H     94.12000000    37.71000000    83.20000000
   H     91.33000000    37.44000000    82.33000000
   H     92.00000000    35.30000000    81.39000000
   H     93.58000000    35.38000000    82.14000000
   N     92.28000000    36.78000000    85.13000000
   C     91.76000000    36.33000000    86.41000000
   C     92.32000000    34.95000000    86.72000000
   O     91.71000000    34.17000000    87.45000000
   C     92.01000000    37.42000000    87.44000000
   C     91.56000000    37.00000000    88.84000000
   C     93.45000000    37.92000000    87.45000000
   C     91.40000000    38.13000000    89.85000000
   H     92.96000000    37.51000000    85.26000000
   H     90.67000000    36.31000000    86.36000000
   H     91.32000000    38.24000000    87.23000000
   H     92.28000000    36.27000000    89.20000000
   H     90.56000000    36.57000000    88.70000000
   H     93.62000000    38.63000000    88.27000000
   H     94.14000000    37.08000000    87.44000000
   H     93.67000000    38.49000000    86.55000000
   H     90.64000000    38.84000000    89.53000000
   H     91.08000000    37.69000000    90.80000000
   H     92.40000000    38.54000000    89.95000000
   N     93.41000000    34.56000000    86.06000000
   C     94.10000000    33.29000000    86.03000000
   C     94.72000000    33.00000000    84.67000000
   O     94.66000000    33.92000000    83.85000000
   C     94.99000000    33.32000000    87.27000000
   C     95.72000000    32.07000000    87.72000000
   O     96.56000000    32.20000000    88.64000000
   O     95.48000000    31.01000000    87.10000000
   H     93.73000000    35.19000000    85.34000000
   H     93.42000000    32.46000000    86.23000000
   H     94.30000000    33.59000000    88.07000000
   H     95.75000000    34.08000000    87.07000000
   N     95.34000000    31.84000000    84.47000000
   C     95.80000000    31.37000000    83.18000000
   C     97.27000000    31.00000000    83.22000000
   O     97.80000000    30.52000000    84.22000000
   H     95.54000000    31.37000000    85.35000000
   H     95.66000000    32.19000000    82.47000000
   H     95.26000000    30.45000000    82.95000000
   N     97.87000000    31.25000000    82.05000000
   C     99.30000000    31.47000000    81.99000000
   C     99.90000000    30.48000000    81.01000000
   O     99.22000000    30.09000000    80.06000000
   C     99.59000000    32.89000000    81.52000000
   C     98.86000000    33.32000000    80.26000000
   O     97.63000000    33.51000000    80.19000000
   O     99.57000000    33.43000000    79.23000000
   H     97.25000000    31.53000000    81.30000000
   H     99.73000000    31.44000000    83.00000000
   H    100.65000000    33.14000000    81.41000000
   H     99.23000000    33.48000000    82.37000000
   N    101.18000000    30.14000000    81.11000000
   C    102.13000000    30.54000000    82.13000000
   C    101.89000000    30.06000000    83.55000000
   O    101.10000000    29.12000000    83.62000000
   H    101.60000000    29.63000000    80.34000000
   H    102.21000000    31.62000000    82.05000000
   H    103.14000000    30.13000000    82.01000000
   N    102.51000000    30.61000000    84.60000000
   C    103.37000000    31.76000000    84.82000000
   C    102.67000000    33.03000000    84.35000000
   O    101.54000000    32.97000000    83.86000000
   C    104.74000000    31.41000000    84.24000000
   C    105.67000000    31.01000000    85.38000000
   C    106.14000000    32.08000000    86.34000000
   N    106.83000000    31.67000000    87.41000000
   O    105.83000000    33.26000000    86.22000000
   H    102.22000000    30.19000000    85.47000000
   H    103.41000000    31.80000000    85.91000000
   H    105.22000000    32.22000000    83.70000000
   H    104.71000000    30.55000000    83.56000000
   H    106.55000000    30.49000000    84.99000000
   H    105.16000000    30.26000000    85.99000000
   H    107.14000000    30.71000000    87.52000000
   H    106.85000000    32.26000000    88.23000000
   N    103.34000000    34.16000000    84.58000000
   C    102.99000000    35.37000000    83.86000000
   C    102.95000000    36.54000000    84.83000000
   O    103.64000000    36.53000000    85.84000000
   C    103.94000000    35.77000000    82.73000000
   C    103.67000000    34.89000000    81.52000000
   C    105.42000000    35.72000000    83.09000000
   H    104.26000000    34.05000000    84.98000000
   H    102.01000000    35.47000000    83.39000000
   H    103.77000000    36.81000000    82.45000000
   H    103.91000000    33.83000000    81.68000000
   H    102.62000000    34.86000000    81.24000000
   H    104.21000000    35.37000000    80.70000000
   H    105.70000000    34.66000000    83.12000000
   H    106.03000000    36.18000000    82.31000000
   H    105.62000000    36.16000000    84.06000000
   N    102.20000000    37.58000000    84.47000000
   C    101.85000000    38.73000000    85.28000000
   C    101.97000000    39.98000000    84.41000000
   O    101.99000000    41.06000000    84.98000000
   C    100.47000000    38.46000000    85.87000000
   C    100.57000000    37.29000000    86.84000000
   N    101.18000000    37.63000000    87.98000000
   O    100.12000000    36.17000000    86.67000000
   H    101.73000000    37.51000000    83.58000000
   H    102.59000000    38.85000000    86.07000000
   H     99.86000000    38.12000000    85.03000000
   H    100.10000000    39.33000000    86.42000000
   H    101.55000000    38.54000000    88.19000000
   H    101.28000000    36.81000000    88.56000000
   N    101.95000000    39.94000000    83.07000000
   C    102.27000000    41.05000000    82.21000000
   C    101.55000000    41.02000000    80.87000000
   O    100.70000000    40.17000000    80.61000000
   C    103.79000000    41.01000000    82.03000000
   C    104.47000000    42.18000000    81.37000000
   C    105.15000000    41.97000000    80.16000000
   C    104.35000000    43.51000000    81.79000000
   C    105.68000000    43.03000000    79.41000000
   C    104.81000000    44.60000000    81.03000000
   C    105.49000000    44.36000000    79.82000000
   O    106.09000000    45.30000000    79.03000000
   H    101.59000000    39.13000000    82.59000000
   H    102.08000000    42.02000000    82.67000000
   H    104.15000000    40.11000000    81.53000000
   H    104.17000000    40.91000000    83.05000000
   H    105.12000000    40.98000000    79.74000000
   H    103.89000000    43.64000000    82.76000000
   H    106.07000000    42.78000000    78.43000000
   H    104.61000000    45.60000000    81.37000000
   H    106.50000000    44.91000000    78.26000000
   N    101.74000000    42.11000000    80.12000000
   C    101.35000000    42.11000000    78.72000000
   C     99.89000000    42.54000000    78.68000000
   O     99.58000000    43.72000000    78.82000000
   C    102.31000000    42.99000000    77.92000000
   C    102.00000000    43.13000000    76.44000000
   C    101.96000000    41.86000000    75.60000000
   O    100.92000000    41.18000000    75.47000000
   O    103.01000000    41.50000000    75.02000000
   H    102.40000000    42.83000000    80.37000000
   H    101.55000000    41.10000000    78.37000000
   H    103.21000000    42.37000000    78.00000000
   H    102.56000000    43.92000000    78.42000000
   H    102.77000000    43.80000000    76.06000000
   H    101.04000000    43.61000000    76.24000000
   N     98.97000000    41.59000000    78.48000000
   C     97.55000000    41.86000000    78.51000000
   C     96.96000000    41.95000000    79.91000000
   O     95.84000000    42.44000000    80.08000000
   C     96.86000000    40.85000000    77.59000000
   C     96.94000000    41.14000000    76.10000000
   C     96.20000000    40.13000000    75.24000000
   O     96.54000000    39.89000000    74.06000000
   O     95.19000000    39.55000000    75.67000000
   H     99.19000000    40.64000000    78.22000000
   H     97.47000000    42.79000000    77.94000000
   H     95.82000000    40.83000000    77.93000000
   H     97.30000000    39.87000000    77.77000000
   H     97.96000000    41.22000000    75.71000000
   H     96.57000000    42.14000000    75.84000000
   N     97.65000000    41.49000000    80.95000000
   C     97.14000000    41.49000000    82.31000000
   H     96.11600000    41.11600000    82.31300000
   H     97.76300000    40.84700000    82.93200000
   H     97.15700000    42.50600000    82.70500000
   H     98.51000000    40.99000000    80.77000000
  Ca     94.01000000    37.90000000    77.43000000
   O     93.60000000    35.10000000    77.04000000
   H     94.25000000    34.41000000    77.15000000
   H     93.14000000    34.88000000    76.22000000
   O     92.96000000    37.15000000    75.06000000
   H     93.42000000    37.07000000    74.23000000
   H     92.03000000    37.08000000    74.82000000
   O     95.95000000    38.15000000    79.03000000
   H     96.87000000    38.31000000    79.22000000
   H     95.67000000    37.53000000    79.71000000
   O     95.90000000    36.66000000    76.08000000
   H     96.35000000    36.74000000    75.24000000
   H     96.60000000    36.56000000    76.72000000

Ca 1.00



