%chk=loop2.holoCaM.run99.water2.chk
%nprocshared=20
%mem=10GB
%nosave
#b3lyp/svp scf=(tight,noincore,xqc) Test 
#IOP(5/87=12) Density=Current Pop=(MK,readradii) iop(6/33=2) iop(6/42=6)

loop2.holoCaM.run99.water2 

   -2  1 
   C     15.38000000    52.83000000     4.65000000
   C     14.00000000    52.24000000     4.93000000
   O     13.88000000    51.31000000     5.73000000
   H     16.10200000    52.02200000     4.52700000
   H     15.34300000    53.42500000     3.73800000
   H     15.68200000    53.46200000     5.48500000
   N     13.03000000    52.66000000     4.12000000
   C     11.63000000    52.29000000     4.24000000
   C     11.29000000    50.82000000     4.10000000
   O     11.75000000    50.07000000     3.25000000
   C     10.74000000    53.16000000     3.36000000
   C      9.25000000    52.98000000     3.63000000
   O      8.46000000    53.03000000     2.67000000
   O      8.90000000    52.91000000     4.83000000
   H     13.31000000    53.15000000     3.28000000
   H     11.47000000    52.55000000     5.29000000
   H     10.79000000    52.87000000     2.31000000
   H     10.83000000    54.22000000     3.59000000
   N     10.38000000    50.38000000     4.98000000
   C      9.66000000    49.13000000     4.86000000
   C      8.14000000    49.16000000     4.82000000
   O      7.48000000    48.13000000     4.69000000
   C     10.27000000    48.16000000     5.87000000
   H     10.13000000    51.03000000     5.71000000
   H      9.89000000    48.83000000     3.83000000
   H      9.78000000    48.40000000     6.81000000
   H     10.02000000    47.13000000     5.63000000
   H     11.34000000    48.36000000     5.89000000
   N      7.56000000    50.35000000     4.99000000
   C      6.12000000    50.45000000     5.06000000
   C      5.31000000    51.35000000     4.15000000
   O      4.11000000    51.12000000     3.96000000
   C      5.73000000    50.94000000     6.46000000
   C      6.46000000    52.17000000     6.97000000
   O      7.31000000    52.07000000     7.88000000
   O      6.37000000    53.24000000     6.34000000
   H      8.05000000    51.23000000     4.94000000
   H      5.64000000    49.47000000     4.95000000
   H      6.00000000    50.18000000     7.19000000
   H      4.65000000    51.03000000     6.54000000
   N      5.86000000    52.36000000     3.47000000
   C      5.17000000    53.34000000     2.66000000
   C      4.48000000    54.49000000     3.38000000
   O      3.77000000    55.25000000     2.73000000
   H      6.84000000    52.54000000     3.63000000
   H      4.43000000    52.94000000     1.96000000
   H      5.81000000    53.91000000     1.99000000
   N      4.73000000    54.68000000     4.67000000
   C      4.00000000    55.67000000     5.44000000
   C      4.50000000    57.07000000     5.16000000
   O      3.82000000    58.08000000     5.36000000
   C      4.02000000    55.39000000     6.94000000
   C      5.37000000    55.49000000     7.64000000
   N      5.52000000    55.12000000     8.91000000
   O      6.39000000    55.89000000     7.07000000
   H      5.40000000    54.09000000     5.16000000
   H      2.94000000    55.46000000     5.29000000
   H      3.56000000    54.43000000     7.15000000
   H      3.28000000    56.09000000     7.32000000
   H      4.78000000    54.69000000     9.46000000
   H      6.48000000    55.06000000     9.23000000
   N      5.72000000    57.20000000     4.62000000
   C      6.48000000    58.42000000     4.48000000
   C      7.10000000    59.19000000     5.64000000
   O      7.01000000    60.41000000     5.70000000
   H      6.23000000    56.32000000     4.65000000
   H      5.79000000    59.08000000     3.95000000
   H      7.30000000    58.26000000     3.78000000
   N      7.56000000    58.45000000     6.65000000
   C      8.31000000    58.83000000     7.83000000
   C      9.28000000    57.76000000     8.29000000
   O      9.19000000    56.58000000     7.96000000
   C      7.40000000    59.02000000     9.04000000
   C      6.45000000    60.21000000     8.96000000
   O      6.62000000    57.84000000     9.03000000
   H      7.53000000    57.47000000     6.40000000
   H      8.95000000    59.70000000     7.66000000
   H      7.93000000    59.09000000     9.99000000
   H      7.03000000    57.22000000     8.42000000
   H      6.93000000    61.18000000     8.86000000
   H      5.82000000    60.02000000     8.10000000
   H      5.83000000    60.31000000     9.85000000
   N     10.37000000    58.22000000     8.91000000
   C     11.33000000    57.35000000     9.57000000
   C     10.64000000    56.89000000    10.84000000
   O     10.47000000    57.72000000    11.73000000
   C     12.70000000    58.01000000     9.72000000
   C     13.39000000    57.78000000     8.37000000
   C     13.55000000    57.51000000    10.88000000
   C     14.55000000    58.76000000     8.23000000
   H     10.40000000    59.22000000     9.07000000
   H     11.38000000    56.45000000     8.97000000
   H     12.52000000    59.08000000     9.74000000
   H     12.73000000    57.99000000     7.53000000
   H     13.67000000    56.75000000     8.14000000
   H     13.62000000    56.42000000    10.80000000
   H     14.57000000    57.89000000    10.83000000
   H     13.05000000    57.79000000    11.81000000
   H     14.96000000    58.70000000     7.23000000
   H     14.15000000    59.75000000     8.42000000
   H     15.35000000    58.52000000     8.94000000
   N     10.29000000    55.61000000    11.01000000
   C     10.05000000    54.85000000    12.22000000
   C     11.37000000    54.48000000    12.89000000
   O     12.39000000    54.64000000    12.22000000
   C      9.19000000    53.65000000    11.83000000
   C      8.00000000    53.97000000    10.94000000
   O      8.15000000    54.23000000     9.73000000
   O      6.91000000    54.00000000    11.55000000
   H     10.46000000    55.05000000    10.19000000
   H      9.54000000    55.45000000    12.96000000
   H      8.87000000    53.16000000    12.75000000
   H      9.83000000    52.96000000    11.29000000
   N     11.42000000    53.86000000    14.07000000
   C     12.66000000    53.54000000    14.76000000
   C     13.50000000    52.39000000    14.23000000
   O     14.72000000    52.57000000    14.23000000
   C     12.43000000    53.31000000    16.25000000
   C     13.67000000    53.20000000    17.11000000
   C     14.47000000    54.30000000    17.45000000
   C     13.97000000    51.92000000    17.58000000
   C     15.55000000    54.14000000    18.33000000
   C     15.09000000    51.72000000    18.39000000
   C     15.83000000    52.85000000    18.79000000
   H     10.53000000    53.79000000    14.55000000
   H     13.23000000    54.47000000    14.74000000
   H     11.77000000    52.46000000    16.39000000
   H     11.91000000    54.19000000    16.64000000
   H     14.22000000    55.23000000    16.96000000
   H     13.36000000    51.04000000    17.42000000
   H     16.07000000    55.03000000    18.64000000
   H     15.39000000    50.71000000    18.63000000
   H     16.62000000    52.64000000    19.49000000
   N     12.99000000    51.27000000    13.72000000
   C     13.76000000    50.34000000    12.93000000
   C     14.52000000    50.95000000    11.75000000
   O     15.54000000    50.40000000    11.35000000
   C     12.88000000    49.21000000    12.41000000
   C     11.88000000    49.16000000    13.56000000
   C     11.72000000    50.62000000    14.00000000
   H     14.56000000    49.93000000    13.55000000
   H     12.32000000    49.54000000    11.54000000
   H     13.43000000    48.29000000    12.21000000
   H     10.86000000    48.88000000    13.30000000
   H     12.24000000    48.41000000    14.27000000
   H     10.92000000    51.16000000    13.50000000
   H     11.66000000    50.62000000    15.09000000
   N     14.12000000    52.12000000    11.26000000
   C     14.78000000    52.72000000    10.11000000
   C     15.85000000    53.67000000    10.61000000
   O     16.81000000    53.90000000     9.88000000
   C     13.66000000    53.40000000     9.33000000
   C     12.59000000    52.38000000     8.98000000
   C     11.41000000    52.99000000     8.24000000
   O     11.11000000    54.20000000     8.30000000
   O     10.72000000    52.22000000     7.52000000
   H     13.48000000    52.71000000    11.77000000
   H     15.26000000    51.92000000     9.54000000
   H     14.06000000    53.82000000     8.40000000
   H     13.33000000    54.26000000     9.91000000
   H     12.23000000    51.92000000     9.90000000
   H     13.02000000    51.53000000     8.45000000
   N     15.68000000    54.21000000    11.82000000
   C     16.46000000    55.17000000    12.57000000
   H     17.37300000    55.40300000    12.02200000
   H     15.87900000    56.08100000    12.71000000
   H     16.71800000    54.75000000    13.54200000
   H     14.80000000    53.96000000    12.26000000
  Ca      8.82000000    54.01000000     7.12000000
   O      8.47000000    55.98000000     5.04000000
   H      9.34000000    56.23000000     4.73000000
   H      8.00000000    55.73000000     4.25000000
   O     11.37000000    55.31000000     5.90000000
   H     11.60000000    55.02000000     6.78000000
   H     12.21000000    55.49000000     5.47000000

Ca 1.00



