%chk=loop3.apoCaM-CA-Ng.Init293.run41.water4.chk
%nprocshared=20
%mem=10GB
%nosave
#b3lyp/svp scf=(tight,noincore,xqc) Test 
#IOP(5/87=12) Density=Current Pop=(MK,readradii) iop(6/33=2) iop(6/42=6)

loop3.apoCaM-CA-Ng.Init293.run41.water4 

   0  1 
   C     25.41000000    75.26000000   -19.15000000
   C     24.52000000    74.78000000   -20.29000000
   O     24.92000000    73.83000000   -20.96000000
   H     26.30000000    75.73700000   -19.56100000
   H     24.86300000    75.97800000   -18.53900000
   H     25.70500000    74.40900000   -18.53600000
   N     23.36000000    75.40000000   -20.51000000
   C     22.45000000    74.97000000   -21.55000000
   C     21.74000000    73.64000000   -21.32000000
   O     21.35000000    73.32000000   -20.20000000
   C     21.36000000    75.98000000   -21.90000000
   C     20.52000000    76.69000000   -20.86000000
   O     20.86000000    76.56000000   -19.66000000
   O     19.48000000    77.24000000   -21.28000000
   H     23.01000000    76.20000000   -19.99000000
   H     23.07000000    74.83000000   -22.43000000
   H     20.65000000    75.55000000   -22.60000000
   H     21.93000000    76.78000000   -22.38000000
   N     21.49000000    72.94000000   -22.43000000
   C     20.83000000    71.66000000   -22.64000000
   C     19.37000000    71.53000000   -22.23000000
   O     18.68000000    70.68000000   -22.78000000
   C     21.67000000    70.56000000   -22.00000000
   C     23.19000000    70.70000000   -22.01000000
   C     23.76000000    70.42000000   -23.39000000
   C     25.28000000    70.41000000   -23.39000000
   N     25.74000000    71.76000000   -23.02000000
   H     21.97000000    73.31000000   -23.23000000
   H     20.79000000    71.39000000   -23.70000000
   H     21.42000000    69.57000000   -22.38000000
   H     21.38000000    70.51000000   -20.95000000
   H     23.57000000    70.00000000   -21.26000000
   H     23.51000000    71.70000000   -21.73000000
   H     23.40000000    71.21000000   -24.05000000
   H     23.46000000    69.40000000   -23.61000000
   H     25.59000000    70.16000000   -24.40000000
   H     25.70000000    69.59000000   -22.80000000
   H     26.03000000    71.86000000   -22.06000000
   H     26.51000000    72.00000000   -23.63000000
   H     25.03000000    72.43000000   -23.26000000
   N     18.90000000    72.35000000   -21.29000000
   C     17.58000000    72.41000000   -20.70000000
   C     16.70000000    73.40000000   -21.45000000
   O     17.26000000    74.32000000   -22.05000000
   C     17.82000000    72.98000000   -19.30000000
   C     16.64000000    72.87000000   -18.34000000
   O     16.79000000    73.21000000   -17.15000000
   O     15.60000000    72.23000000   -18.60000000
   H     19.54000000    73.09000000   -21.04000000
   H     17.16000000    71.41000000   -20.61000000
   H     18.25000000    73.98000000   -19.34000000
   H     18.64000000    72.40000000   -18.88000000
   N     15.38000000    73.24000000   -21.42000000
   C     14.39000000    74.13000000   -21.99000000
   C     13.33000000    74.48000000   -20.96000000
   O     12.71000000    73.63000000   -20.32000000
   H     14.98000000    72.54000000   -20.80000000
   H     13.85000000    73.70000000   -22.84000000
   H     14.89000000    75.06000000   -22.28000000
   N     13.23000000    75.77000000   -20.62000000
   C     12.41000000    76.28000000   -19.53000000
   C     11.46000000    77.36000000   -20.03000000
   O     10.39000000    77.61000000   -19.48000000
   C     13.33000000    76.78000000   -18.43000000
   C     14.34000000    75.74000000   -17.97000000
   N     15.62000000    76.00000000   -18.23000000
   O     14.10000000    74.77000000   -17.25000000
   H     13.76000000    76.47000000   -21.11000000
   H     11.88000000    75.43000000   -19.10000000
   H     12.65000000    77.03000000   -17.62000000
   H     13.89000000    77.68000000   -18.69000000
   H     15.92000000    76.81000000   -18.74000000
   H     16.29000000    75.42000000   -17.74000000
   N     11.59000000    77.91000000   -21.24000000
   C     10.60000000    78.78000000   -21.85000000
   C     10.47000000    80.10000000   -21.11000000
   O     11.46000000    80.66000000   -20.64000000
   H     12.45000000    77.74000000   -21.75000000
   H      9.67000000    78.22000000   -21.94000000
   H     10.83000000    79.08000000   -22.87000000
   N      9.22000000    80.54000000   -20.97000000
   C      8.88000000    81.57000000   -20.01000000
   C      9.38000000    81.40000000   -18.59000000
   O      9.53000000    82.38000000   -17.86000000
   C      9.04000000    82.94000000   -20.68000000
   C      8.39000000    83.17000000   -22.03000000
   C      9.15000000    83.36000000   -23.19000000
   C      7.00000000    83.16000000   -22.12000000
   C      8.51000000    83.38000000   -24.44000000
   C      6.35000000    83.23000000   -23.36000000
   C      7.10000000    83.50000000   -24.51000000
   O      6.54000000    83.48000000   -25.76000000
   H      8.43000000    80.03000000   -21.33000000
   H      7.80000000    81.48000000   -19.87000000
   H     10.11000000    83.11000000   -20.81000000
   H      8.71000000    83.74000000   -20.01000000
   H     10.23000000    83.36000000   -23.24000000
   H      6.42000000    83.09000000   -21.21000000
   H      9.07000000    83.50000000   -25.35000000
   H      5.27000000    83.18000000   -23.38000000
   H      5.59000000    83.49000000   -25.79000000
   N      9.79000000    80.19000000   -18.21000000
   C     10.38000000    79.72000000   -16.97000000
   C      9.42000000    79.73000000   -15.79000000
   O      9.39000000    78.80000000   -14.99000000
   C     11.67000000    80.42000000   -16.56000000
   C     12.71000000    80.49000000   -17.67000000
   C     12.29000000    79.80000000   -15.31000000
   C     14.01000000    81.26000000   -17.46000000
   H      9.64000000    79.49000000   -18.92000000
   H     10.62000000    78.67000000   -17.14000000
   H     11.44000000    81.45000000   -16.25000000
   H     12.34000000    81.19000000   -18.42000000
   H     12.92000000    79.51000000   -18.11000000
   H     13.24000000    80.29000000   -15.10000000
   H     11.72000000    79.79000000   -14.38000000
   H     12.41000000    78.73000000   -15.52000000
   H     13.79000000    82.26000000   -17.08000000
   H     14.68000000    80.78000000   -16.75000000
   H     14.52000000    81.43000000   -18.40000000
   N      8.57000000    80.76000000   -15.68000000
   C      7.38000000    80.87000000   -14.87000000
   C      7.68000000    80.69000000   -13.39000000
   O      6.97000000    79.99000000   -12.67000000
   C      6.75000000    82.24000000   -15.11000000
   O      6.70000000    82.44000000   -16.51000000
   H      8.80000000    81.49000000   -16.34000000
   H      6.60000000    80.19000000   -15.22000000
   H      7.36000000    83.02000000   -14.67000000
   H      5.74000000    82.23000000   -14.69000000
   H      6.20000000    83.26000000   -16.59000000
   N      8.89000000    81.11000000   -13.02000000
   C      9.48000000    80.84000000   -11.72000000
   C      9.22000000    79.43000000   -11.20000000
   O      9.08000000    79.25000000   -10.00000000
   C      9.00000000    81.92000000   -10.75000000
   H      9.41000000    81.68000000   -13.67000000
   H     10.56000000    80.97000000   -11.71000000
   H      9.20000000    82.86000000   -11.25000000
   H      7.99000000    81.67000000   -10.43000000
   H      9.63000000    81.85000000    -9.86000000
   N      9.25000000    78.43000000   -12.08000000
   C      9.31000000    77.04000000   -11.71000000
   C     10.71000000    76.53000000   -11.39000000
   O     11.72000000    77.10000000   -11.81000000
   C      8.54000000    76.28000000   -12.79000000
   H      9.14000000    78.71000000   -13.05000000
   H      8.67000000    76.90000000   -10.84000000
   H      8.79000000    75.23000000   -12.71000000
   H      7.47000000    76.40000000   -12.61000000
   H      8.70000000    76.62000000   -13.82000000
   N     10.70000000    75.33000000   -10.80000000
   C     11.85000000    74.51000000   -10.47000000
   C     12.83000000    75.15000000    -9.50000000
   O     14.03000000    74.87000000    -9.45000000
   C     12.53000000    73.90000000   -11.69000000
   C     11.66000000    73.17000000   -12.70000000
   C     12.28000000    72.91000000   -14.07000000
   O     12.74000000    71.80000000   -14.40000000
   O     12.42000000    73.90000000   -14.82000000
   H      9.76000000    75.02000000   -10.57000000
   H     11.46000000    73.60000000   -10.02000000
   H     13.28000000    73.19000000   -11.34000000
   H     13.13000000    74.65000000   -12.21000000
   H     10.80000000    73.81000000   -12.89000000
   H     11.36000000    72.21000000   -12.28000000
   N     12.41000000    75.98000000    -8.55000000
   C     13.24000000    76.85000000    -7.75000000
   H     14.14400000    77.10100000    -8.30600000
   H     12.69200000    77.76300000    -7.51700000
   H     13.51200000    76.34300000    -6.82400000
   H     11.45000000    75.84000000    -8.26000000
  Ca     14.54000000    72.47000000   -16.16800000
   O     12.41000000    72.29000000   -17.95800000
   H     12.52000000    72.65000000   -18.83800000
   H     11.49000000    72.02000000   -17.91800000
   O     15.33000000    74.13000000   -14.17800000
   H     14.87000000    74.91000000   -13.85800000
   H     16.24000000    74.27000000   -13.92800000
   O     13.96000000    69.98000000   -16.69800000
   H     13.31000000    69.46000000   -17.17800000
   H     14.55000000    69.32000000   -16.31800000
   O     15.96000000    71.16000000   -14.44800000
   H     15.56000000    71.09000000   -13.57800000
   H     16.70000000    70.54000000   -14.41800000

Ca 1.00



