%chk=loop4.holoCaM.run1.water2.chk
%nprocshared=20
%mem=10GB
%nosave
#b3lyp/svp scf=(tight,noincore,xqc) Test 
#IOP(5/87=12) Density=Current Pop=(MK,readradii) iop(6/33=2) iop(6/42=6)

loop4.holoCaM.run1.water2 

   -3  1 
   C     38.09000000    31.92000000    42.19000000
   C     39.18000000    31.66000000    43.22000000
   O     40.34000000    31.66000000    42.83000000
   H     37.24700000    32.41600000    42.67100000
   H     38.48200000    32.55800000    41.39800000
   H     37.75900000    30.97300000    41.76400000
   N     38.88000000    31.47000000    44.51000000
   C     39.77000000    31.09000000    45.59000000
   C     40.20000000    29.63000000    45.54000000
   O     39.36000000    28.73000000    45.46000000
   C     39.19000000    31.37000000    46.97000000
   C     39.92000000    30.82000000    48.19000000
   O     41.05000000    31.31000000    48.43000000
   O     39.43000000    30.00000000    48.98000000
   H     37.90000000    31.64000000    44.64000000
   H     40.70000000    31.64000000    45.41000000
   H     38.22000000    30.87000000    46.97000000
   H     38.94000000    32.43000000    47.08000000
   N     41.52000000    29.47000000    45.59000000
   C     42.22000000    28.24000000    45.28000000
   C     42.51000000    27.52000000    46.59000000
   O     42.34000000    26.31000000    46.67000000
   C     43.45000000    28.56000000    44.43000000
   C     42.91000000    28.91000000    43.05000000
   C     44.52000000    27.47000000    44.36000000
   C     43.91000000    29.40000000    42.01000000
   H     42.05000000    30.32000000    45.73000000
   H     41.57000000    27.54000000    44.75000000
   H     43.93000000    29.34000000    45.02000000
   H     42.20000000    29.74000000    43.08000000
   H     42.57000000    27.98000000    42.59000000
   H     44.06000000    26.60000000    43.90000000
   H     45.36000000    27.75000000    43.72000000
   H     44.89000000    27.23000000    45.35000000
   H     43.43000000    29.88000000    41.15000000
   H     44.54000000    30.18000000    42.44000000
   H     44.65000000    28.65000000    41.72000000
   N     42.84000000    28.25000000    47.66000000
   C     43.66000000    27.79000000    48.77000000
   C     43.04000000    28.11000000    50.12000000
   O     43.62000000    27.83000000    51.16000000
   C     45.00000000    28.53000000    48.79000000
   C     45.00000000    30.02000000    48.51000000
   O     43.90000000    30.61000000    48.54000000
   O     46.12000000    30.53000000    48.31000000
   H     42.66000000    29.24000000    47.61000000
   H     43.80000000    26.71000000    48.82000000
   H     45.51000000    28.07000000    47.94000000
   H     45.60000000    28.28000000    49.66000000
   N     41.76000000    28.47000000    50.18000000
   C     40.91000000    28.18000000    51.32000000
   C     40.46000000    29.38000000    52.15000000
   O     40.00000000    29.10000000    53.26000000
   H     41.39000000    28.93000000    49.36000000
   H     41.40000000    27.46000000    51.97000000
   H     40.00000000    27.75000000    50.89000000
   N     40.70000000    30.61000000    51.71000000
   C     40.39000000    31.79000000    52.50000000
   C     39.32000000    32.69000000    51.91000000
   O     39.06000000    33.73000000    52.50000000
   C     41.72000000    32.54000000    52.55000000
   C     42.20000000    32.99000000    51.18000000
   O     41.51000000    33.64000000    50.37000000
   O     43.36000000    32.69000000    50.83000000
   H     40.91000000    30.72000000    50.72000000
   H     40.19000000    31.56000000    53.54000000
   H     42.50000000    31.94000000    53.01000000
   H     41.66000000    33.42000000    53.19000000
   N     38.75000000    32.26000000    50.78000000
   C     37.58000000    32.91000000    50.24000000
   C     37.78000000    34.37000000    49.87000000
   O     36.87000000    35.18000000    50.03000000
   H     39.06000000    31.38000000    50.38000000
   H     36.74000000    32.82000000    50.94000000
   H     37.29000000    32.41000000    49.32000000
   N     38.96000000    34.69000000    49.34000000
   C     39.18000000    35.97000000    48.68000000
   C     40.34000000    35.78000000    47.71000000
   O     41.19000000    34.91000000    47.90000000
   C     39.39000000    37.11000000    49.66000000
   C     40.31000000    36.88000000    50.86000000
   C     40.41000000    38.19000000    51.62000000
   N     40.66000000    38.13000000    52.93000000
   O     40.29000000    39.32000000    51.15000000
   H     39.80000000    34.14000000    49.47000000
   H     38.33000000    36.24000000    48.06000000
   H     38.39000000    37.41000000    50.00000000
   H     39.84000000    37.94000000    49.11000000
   H     41.34000000    36.67000000    50.55000000
   H     39.90000000    36.09000000    51.49000000
   H     40.70000000    37.22000000    53.38000000
   H     40.73000000    38.99000000    53.45000000
   N     40.49000000    36.64000000    46.70000000
   C     41.45000000    36.46000000    45.63000000
   C     42.65000000    37.40000000    45.70000000
   O     42.58000000    38.62000000    45.84000000
   C     40.80000000    36.34000000    44.26000000
   C     39.69000000    35.28000000    44.22000000
   C     40.03000000    37.58000000    43.82000000
   H     39.90000000    37.46000000    46.63000000
   H     41.89000000    35.49000000    45.87000000
   H     41.62000000    36.06000000    43.61000000
   H     38.72000000    35.58000000    44.62000000
   H     39.65000000    34.84000000    43.23000000
   H     40.09000000    34.47000000    44.83000000
   H     39.69000000    37.50000000    42.78000000
   H     39.12000000    37.78000000    44.39000000
   H     40.68000000    38.45000000    43.92000000
   N     43.85000000    36.89000000    45.44000000
   C     45.07000000    37.57000000    45.04000000
   C     45.16000000    37.74000000    43.52000000
   O     44.34000000    37.29000000    42.74000000
   C     46.31000000    36.97000000    45.67000000
   C     47.06000000    35.89000000    44.89000000
   N     46.48000000    34.69000000    44.87000000
   O     48.06000000    36.19000000    44.24000000
   H     43.85000000    35.89000000    45.29000000
   H     45.06000000    38.56000000    45.51000000
   H     46.20000000    36.71000000    46.72000000
   H     47.06000000    37.76000000    45.68000000
   H     45.62000000    34.57000000    45.38000000
   H     47.00000000    34.00000000    44.34000000
   N     46.13000000    38.54000000    43.07000000
   C     46.35000000    38.93000000    41.70000000
   C     46.47000000    37.73000000    40.77000000
   O     46.01000000    37.73000000    39.63000000
   C     47.50000000    39.93000000    41.54000000
   C     47.60000000    40.49000000    40.14000000
   C     46.63000000    41.42000000    39.76000000
   C     48.46000000    39.92000000    39.19000000
   C     46.60000000    41.98000000    38.47000000
   C     48.43000000    40.49000000    37.91000000
   C     47.51000000    41.49000000    37.52000000
   O     47.42000000    41.81000000    36.19000000
   H     46.65000000    39.10000000    43.74000000
   H     45.38000000    39.38000000    41.48000000
   H     48.45000000    39.42000000    41.71000000
   H     47.47000000    40.70000000    42.30000000
   H     45.97000000    41.84000000    40.51000000
   H     49.20000000    39.16000000    39.40000000
   H     45.77000000    42.58000000    38.12000000
   H     48.97000000    39.97000000    37.13000000
   H     48.12000000    41.46000000    35.63000000
   N     47.11000000    36.64000000    41.19000000
   C     47.26000000    35.42000000    40.43000000
   C     45.95000000    34.67000000    40.23000000
   O     45.59000000    34.23000000    39.14000000
   C     48.38000000    34.59000000    41.06000000
   C     48.59000000    33.18000000    40.52000000
   C     49.84000000    32.48000000    41.04000000
   O     50.90000000    33.15000000    41.07000000
   O     49.92000000    31.26000000    41.27000000
   H     47.53000000    36.66000000    42.11000000
   H     47.69000000    35.67000000    39.46000000
   H     48.16000000    34.47000000    42.12000000
   H     49.29000000    35.19000000    40.96000000
   H     48.66000000    33.23000000    39.43000000
   H     47.70000000    32.60000000    40.79000000
   N     45.18000000    34.55000000    41.31000000
   C     43.79000000    34.14000000    41.31000000
   C     42.88000000    35.01000000    40.46000000
   O     41.97000000    34.57000000    39.76000000
   C     43.32000000    34.11000000    42.76000000
   C     43.72000000    32.89000000    43.59000000
   C     43.36000000    33.02000000    45.06000000
   O     43.68000000    33.99000000    45.78000000
   O     43.01000000    32.03000000    45.73000000
   H     45.49000000    35.12000000    42.08000000
   H     43.68000000    33.17000000    40.83000000
   H     42.23000000    34.01000000    42.74000000
   H     43.57000000    35.04000000    43.26000000
   H     44.74000000    32.54000000    43.39000000
   H     43.17000000    32.04000000    43.19000000
   N     43.14000000    36.32000000    40.45000000
   C     42.36000000    37.23000000    39.65000000
   H     41.45000000    37.49600000    40.18700000
   H     42.94100000    38.13100000    39.45200000
   H     42.09800000    36.75200000    38.70600000
   H     43.81000000    36.74000000    41.07000000
  Ca     43.01000000    32.95000000    48.23000000
   O     43.74000000    35.55000000    49.17000000
   H     43.43000000    35.26000000    50.03000000
   H     44.67000000    35.73000000    49.30000000
   O     45.61000000    33.37000000    48.20000000
   H     46.41000000    33.87000000    48.35000000
   H     45.88000000    32.46000000    48.34000000

Ca 1.00



