%chk=loop1.apoCaM-CA-Ng.Init295.run34.water5.chk
%nprocshared=20
%mem=10GB
%nosave
#b3lyp/svp scf=(tight,noincore,xqc) Test 
#IOP(5/87=12) Density=Current Pop=(MK,readradii) iop(6/33=2) iop(6/42=6)

loop1.apoCaM-CA-Ng.Init295.run34.water5 

   0  1 
   C     95.12000000    86.01000000    61.46000000
   C     94.11000000    86.42000000    60.39000000
   O     92.95000000    86.51000000    60.79000000
   H     95.99000000    86.66500000    61.40800000
   H     94.66100000    86.09500000    62.44500000
   H     95.43100000    84.97900000    61.29100000
   N     94.55000000    86.85000000    59.21000000
   C     93.75000000    87.52000000    58.20000000
   C     93.21000000    88.89000000    58.58000000
   O     92.05000000    89.28000000    58.47000000
   C     92.73000000    86.48000000    57.74000000
   C     91.91000000    86.88000000    56.53000000
   O     90.88000000    86.29000000    56.12000000
   O     92.39000000    87.76000000    55.79000000
   H     95.49000000    86.59000000    58.95000000
   H     94.46000000    87.69000000    57.40000000
   H     92.07000000    86.16000000    58.54000000
   H     93.29000000    85.59000000    57.46000000
   N     94.21000000    89.70000000    58.95000000
   C     94.11000000    91.02000000    59.52000000
   C     94.82000000    92.06000000    58.67000000
   O     94.67000000    93.26000000    58.89000000
   C     94.61000000    90.98000000    60.97000000
   C     93.71000000    90.22000000    61.94000000
   C     92.24000000    90.65000000    61.86000000
   C     91.38000000    90.40000000    63.10000000
   N     90.18000000    91.25000000    63.02000000
   H     95.07000000    89.18000000    59.01000000
   H     93.07000000    91.35000000    59.48000000
   H     94.75000000    92.01000000    61.30000000
   H     95.51000000    90.38000000    60.87000000
   H     94.12000000    90.34000000    62.94000000
   H     93.74000000    89.16000000    61.67000000
   H     91.79000000    90.15000000    61.01000000
   H     92.31000000    91.72000000    61.66000000
   H     91.96000000    90.55000000    64.01000000
   H     91.11000000    89.35000000    63.09000000
   H     89.78000000    91.26000000    62.09000000
   H     89.41000000    90.86000000    63.54000000
   H     90.33000000    92.24000000    63.17000000
   N     95.69000000    91.63000000    57.75000000
   C     96.53000000    92.59000000    57.06000000
   C     95.84000000    93.31000000    55.91000000
   O     96.11000000    94.50000000    55.73000000
   C     97.83000000    91.91000000    56.61000000
   C     99.00000000    92.83000000    56.30000000
   O    100.16000000    92.37000000    56.21000000
   O     98.80000000    94.06000000    56.37000000
   H     95.96000000    90.67000000    57.84000000
   H     96.83000000    93.34000000    57.79000000
   H     97.58000000    91.27000000    55.77000000
   H     98.08000000    91.14000000    57.34000000
   N     95.01000000    92.62000000    55.12000000
   C     94.05000000    93.11000000    54.16000000
   C     94.65000000    93.55000000    52.83000000
   O     94.03000000    93.63000000    51.77000000
   H     94.94000000    91.62000000    55.25000000
   H     93.53000000    93.94000000    54.64000000
   H     93.34000000    92.30000000    54.01000000
   N     95.98000000    93.71000000    52.78000000
   C     96.76000000    94.17000000    51.65000000
   C     98.08000000    93.49000000    51.36000000
   O     98.96000000    94.00000000    50.67000000
   C     97.00000000    95.67000000    51.83000000
   C     97.24000000    96.17000000    53.25000000
   O     96.44000000    96.97000000    53.78000000
   O     98.26000000    95.73000000    53.81000000
   H     96.44000000    93.89000000    53.66000000
   H     96.08000000    94.03000000    50.80000000
   H     96.03000000    96.04000000    51.50000000
   H     97.81000000    95.98000000    51.18000000
   N     98.22000000    92.31000000    51.98000000
   C     99.45000000    91.62000000    52.29000000
   C     99.23000000    90.25000000    52.92000000
   O     98.09000000    89.83000000    53.14000000
   H     97.44000000    92.03000000    52.56000000
   H    100.01000000    92.18000000    53.04000000
   H    100.12000000    91.62000000    51.43000000
   N    100.33000000    89.69000000    53.41000000
   C    100.38000000    88.55000000    54.32000000
   C    101.79000000    87.98000000    54.36000000
   O    102.70000000    88.80000000    54.38000000
   C     99.90000000    88.95000000    55.71000000
   C     99.81000000    87.71000000    56.59000000
   O    100.70000000    89.86000000    56.44000000
   H    101.21000000    90.16000000    53.27000000
   H     99.69000000    87.79000000    53.97000000
   H     98.90000000    89.37000000    55.60000000
   H    100.28000000    90.69000000    56.21000000
   H    100.80000000    87.33000000    56.84000000
   H     99.24000000    87.93000000    57.49000000
   H     99.37000000    86.85000000    56.08000000
   N    101.92000000    86.65000000    54.43000000
   C    103.17000000    85.93000000    54.57000000
   C    103.34000000    84.75000000    53.62000000
   O    104.48000000    84.39000000    53.35000000
   C    103.37000000    85.47000000    56.01000000
   C    104.77000000    85.03000000    56.40000000
   C    102.31000000    84.48000000    56.50000000
   C    104.90000000    84.54000000    57.84000000
   H    101.05000000    86.15000000    54.33000000
   H    104.02000000    86.59000000    54.37000000
   H    103.22000000    86.36000000    56.63000000
   H    105.52000000    85.81000000    56.27000000
   H    105.09000000    84.17000000    55.82000000
   H    101.29000000    84.77000000    56.24000000
   H    102.48000000    83.52000000    56.01000000
   H    102.35000000    84.38000000    57.58000000
   H    105.96000000    84.49000000    58.10000000
   H    104.42000000    85.32000000    58.44000000
   H    104.50000000    83.54000000    57.97000000
   N    102.28000000    84.25000000    52.99000000
   C    102.28000000    83.22000000    51.98000000
   C    102.62000000    81.86000000    52.56000000
   O    102.05000000    81.46000000    53.57000000
   C    101.04000000    83.16000000    51.09000000
   C    100.92000000    84.43000000    50.24000000
   O    101.14000000    82.06000000    50.22000000
   H    101.38000000    84.62000000    53.29000000
   H    103.13000000    83.49000000    51.35000000
   H    100.17000000    83.05000000    51.73000000
   H    100.28000000    81.96000000    49.80000000
   H    101.06000000    85.34000000    50.82000000
   H    101.79000000    84.56000000    49.59000000
   H     99.97000000    84.42000000    49.71000000
   N    103.57000000    81.22000000    51.87000000
   C    103.82000000    79.81000000    52.09000000
   C    104.91000000    79.61000000    53.13000000
   O    104.94000000    78.54000000    53.74000000
   C    104.17000000    79.10000000    50.78000000
   C    104.21000000    77.59000000    50.57000000
   O    105.42000000    79.54000000    50.32000000
   H    103.99000000    81.58000000    51.02000000
   H    102.91000000    79.29000000    52.38000000
   H    103.45000000    79.52000000    50.07000000
   H    105.87000000    78.75000000    50.01000000
   H    105.16000000    77.14000000    50.83000000
   H    103.38000000    77.14000000    51.12000000
   H    104.06000000    77.25000000    49.55000000
   N    105.76000000    80.63000000    53.31000000
   C    106.95000000    80.55000000    54.12000000
   C    106.64000000    80.67000000    55.61000000
   O    105.84000000    81.51000000    56.04000000
   C    107.99000000    81.53000000    53.58000000
   C    107.74000000    83.02000000    53.78000000
   C    109.04000000    83.81000000    53.75000000
   C    108.75000000    85.29000000    54.00000000
   N    109.89000000    86.18000000    53.75000000
   H    105.60000000    81.48000000    52.79000000
   H    107.39000000    79.56000000    53.99000000
   H    108.18000000    81.32000000    52.53000000
   H    108.98000000    81.35000000    54.00000000
   H    107.31000000    83.12000000    54.78000000
   H    107.00000000    83.43000000    53.10000000
   H    109.51000000    83.60000000    52.80000000
   H    109.64000000    83.45000000    54.59000000
   H    108.44000000    85.39000000    55.05000000
   H    107.92000000    85.62000000    53.38000000
   H    110.77000000    85.91000000    54.17000000
   H    110.07000000    86.15000000    52.75000000
   H    109.65000000    87.15000000    53.87000000
   N    107.33000000    79.90000000    56.45000000
   C    107.34000000    80.01000000    57.89000000
   C    107.10000000    78.72000000    58.67000000
   O    107.43000000    77.67000000    58.13000000
   C    108.73000000    80.44000000    58.35000000
   C    108.94000000    81.92000000    58.03000000
   C    110.35000000    82.45000000    58.23000000
   O    110.92000000    82.33000000    59.34000000
   O    110.91000000    82.96000000    57.24000000
   H    107.93000000    79.18000000    56.06000000
   H    106.61000000    80.75000000    58.21000000
   H    109.43000000    79.71000000    57.94000000
   H    108.79000000    80.28000000    59.43000000
   H    108.31000000    82.58000000    58.62000000
   H    108.68000000    82.01000000    56.97000000
   N    106.72000000    78.75000000    59.95000000
   C    106.20000000    79.79000000    60.81000000
   H    105.19500000    79.52200000    61.13700000
   H    106.84700000    79.90000000    61.68000000
   H    106.16400000    80.73100000    60.26200000
   H    106.77000000    77.85000000    60.41000000
  Ca     97.88000000    96.43000000    56.21000000
   O     95.56000000    98.03000000    56.39000000
   H     95.24000000    98.65000000    57.04000000
   H     94.85000000    97.98000000    55.75000000
   O     97.81000000    98.91000000    57.50000000
   H     97.66000000    99.61000000    56.86000000
   H     97.85000000    99.36000000    58.34000000
   O    100.61000000    97.00000000    55.42000000
   H    101.03000000    96.14000000    55.32000000
   H    101.32000000    97.63000000    55.25000000
   O     96.92000000    95.66000000    58.69000000
   H     96.18000000    95.35000000    59.21000000
   H     97.56000000    95.96000000    59.33000000
   O     99.86000000    96.24000000    58.11000000
   H    100.59000000    96.84000000    57.97000000
   H    100.20000000    95.39000000    57.82000000

Ca 1.00



