%chk=loop4.holoCaM-CaMKII.run81.water2.chk
%nprocshared=20
%mem=10GB
%nosave
#b3lyp/svp scf=(tight,noincore,xqc) Test 
#IOP(5/87=12) Density=Current Pop=(MK,readradii) iop(6/33=2) iop(6/42=6)

loop4.holoCaM-CaMKII.run81.water2 

   -3  1 
   C     39.23000000    45.06000000   100.43300000
   C     38.74000000    43.64000000   100.70300000
   O     37.56000000    43.30000000   100.60300000
   H     40.20500000    45.02100000    99.94800000
   H     38.52100000    45.57200000    99.78200000
   H     39.31500000    45.60100000   101.37500000
   N     39.56000000    42.77000000   101.29300000
   C     39.27000000    41.44000000   101.76300000
   C     38.72000000    41.54000000   103.18300000
   O     39.30000000    42.15000000   104.07300000
   C     40.54000000    40.59000000   101.64300000
   C     40.50000000    39.25000000   102.35300000
   O     41.57000000    38.79000000   102.80300000
   O     39.41000000    38.63000000   102.47300000
   H     40.50000000    43.10000000   101.46300000
   H     38.50000000    41.04000000   101.11300000
   H     41.33000000    41.19000000   102.10300000
   H     40.77000000    40.49000000   100.58300000
   N     37.54000000    40.94000000   103.37300000
   C     36.90000000    40.99000000   104.67300000
   C     37.25000000    39.82000000   105.59300000
   O     37.68000000    40.13000000   106.70300000
   C     35.39000000    41.16000000   104.51300000
   C     35.07000000    42.39000000   103.67300000
   C     34.78000000    41.26000000   105.90300000
   C     33.59000000    42.74000000   103.56300000
   H     37.10000000    40.48000000   102.59300000
   H     37.16000000    41.87000000   105.25300000
   H     35.02000000    40.23000000   104.08300000
   H     35.50000000    42.20000000   102.68300000
   H     35.64000000    43.15000000   104.20300000
   H     35.05000000    42.24000000   106.30300000
   H     33.70000000    41.24000000   105.76300000
   H     35.02000000    40.43000000   106.57300000
   H     33.50000000    43.46000000   102.75300000
   H     32.98000000    41.86000000   103.33300000
   H     33.16000000    43.16000000   104.47300000
   N     37.38000000    38.57000000   105.15300000
   C     37.35000000    37.43000000   106.05300000
   C     38.78000000    36.93000000   106.16300000
   O     39.05000000    36.18000000   107.10300000
   C     36.35000000    36.33000000   105.70300000
   C     36.44000000    35.76000000   104.30300000
   O     37.04000000    36.42000000   103.43300000
   O     35.81000000    34.72000000   104.01300000
   H     37.07000000    38.47000000   104.20300000
   H     36.99000000    37.83000000   107.00300000
   H     35.37000000    36.79000000   105.84300000
   H     36.56000000    35.63000000   106.51300000
   N     39.71000000    37.26000000   105.26300000
   C     41.11000000    37.06000000   105.56300000
   C     41.88000000    36.03000000   104.74300000
   O     42.93000000    35.60000000   105.20300000
   H     39.45000000    37.79000000   104.44300000
   H     41.33000000    36.70000000   106.56300000
   H     41.53000000    38.04000000   105.34300000
   N     41.35000000    35.58000000   103.60300000
   C     42.02000000    34.72000000   102.64300000
   C     43.05000000    35.47000000   101.81300000
   O     43.63000000    34.75000000   101.01300000
   C     41.05000000    33.93000000   101.78300000
   C     40.19000000    34.79000000   100.86300000
   O     40.27000000    36.03000000   100.88300000
   O     39.31000000    34.26000000   100.14300000
   H     40.67000000    36.17000000   103.14300000
   H     42.54000000    33.99000000   103.26300000
   H     40.39000000    33.41000000   102.47300000
   H     41.62000000    33.23000000   101.17300000
   N     43.21000000    36.80000000   101.90300000
   C     44.01000000    37.57000000   100.98300000
   C     43.45000000    37.81000000    99.59300000
   O     44.23000000    38.29000000    98.76300000
   H     42.62000000    37.37000000   102.50300000
   H     44.86000000    36.93000000   100.76300000
   H     44.25000000    38.52000000   101.48300000
   N     42.15000000    37.60000000    99.38300000
   C     41.46000000    37.82000000    98.12300000
   C     40.06000000    38.42000000    98.26300000
   O     39.45000000    38.36000000    99.32300000
   C     41.39000000    36.51000000    97.35300000
   C     42.76000000    36.00000000    96.90300000
   C     42.65000000    35.17000000    95.63300000
   N     42.13000000    33.94000000    95.67300000
   O     43.04000000    35.59000000    94.54300000
   H     41.67000000    37.05000000   100.07300000
   H     42.05000000    38.50000000    97.50300000
   H     40.76000000    36.58000000    96.46300000
   H     41.11000000    35.74000000    98.06300000
   H     43.19000000    35.32000000    97.63300000
   H     43.40000000    36.87000000    96.74300000
   H     41.79000000    33.58000000    96.55300000
   H     42.13000000    33.50000000    94.76300000
   N     39.60000000    38.97000000    97.14300000
   C     38.37000000    39.75000000    97.13300000
   C     37.45000000    39.16000000    96.06300000
   O     37.77000000    39.08000000    94.88300000
   C     38.61000000    41.22000000    96.81300000
   C     37.53000000    42.24000000    97.15300000
   C     39.83000000    41.73000000    97.56300000
   H     40.24000000    39.18000000    96.38300000
   H     37.86000000    39.59000000    98.08300000
   H     38.81000000    41.34000000    95.75300000
   H     37.50000000    42.21000000    98.24300000
   H     37.87000000    43.22000000    96.82300000
   H     36.59000000    41.95000000    96.68300000
   H     40.73000000    41.16000000    97.34300000
   H     40.00000000    42.80000000    97.46300000
   H     39.72000000    41.67000000    98.64300000
   N     36.31000000    38.72000000    96.60300000
   C     35.19000000    38.33000000    95.77300000
   C     34.18000000    39.47000000    95.69300000
   O     34.35000000    40.53000000    96.28300000
   C     34.58000000    37.02000000    96.28300000
   C     33.59000000    37.22000000    97.41300000
   N     34.02000000    37.14000000    98.67300000
   O     32.42000000    37.57000000    97.25300000
   H     36.14000000    38.91000000    97.57300000
   H     35.58000000    38.10000000    94.78300000
   H     35.41000000    36.46000000    96.70300000
   H     34.08000000    36.52000000    95.45300000
   H     34.98000000    37.03000000    98.98300000
   H     33.32000000    37.16000000    99.39300000
   N     33.20000000    39.35000000    94.79300000
   C     32.32000000    40.42000000    94.36300000
   C     31.59000000    41.04000000    95.55300000
   O     31.48000000    42.26000000    95.65300000
   C     31.37000000    39.87000000    93.31300000
   C     30.57000000    40.92000000    92.57300000
   C     31.18000000    41.60000000    91.51300000
   C     29.23000000    41.12000000    92.91300000
   C     30.36000000    42.40000000    90.70300000
   C     28.47000000    42.04000000    92.19300000
   C     29.05000000    42.74000000    91.11300000
   O     28.40000000    43.65000000    90.33300000
   H     32.97000000    38.47000000    94.34300000
   H     32.94000000    41.21000000    93.94300000
   H     30.59000000    39.26000000    93.76300000
   H     31.94000000    39.25000000    92.61300000
   H     32.23000000    41.42000000    91.31300000
   H     28.81000000    40.58000000    93.75300000
   H     30.79000000    42.72000000    89.76300000
   H     27.40000000    42.15000000    92.30300000
   H     27.47000000    43.82000000    90.55300000
   N     31.23000000    40.29000000    96.59300000
   C     30.54000000    40.88000000    97.72300000
   C     31.42000000    41.77000000    98.58300000
   O     30.86000000    42.72000000    99.13300000
   C     30.23000000    39.67000000    98.61300000
   C     28.97000000    39.91000000    99.44300000
   C     28.73000000    38.58000000   100.14300000
   O     27.79000000    37.84000000    99.78300000
   O     29.58000000    38.31000000   101.02300000
   H     31.44000000    39.30000000    96.65300000
   H     29.64000000    41.32000000    97.31300000
   H     31.08000000    39.57000000    99.28300000
   H     30.15000000    38.73000000    98.08300000
   H     28.13000000    40.08000000    98.78300000
   H     29.07000000    40.71000000   100.19300000
   N     32.73000000    41.52000000    98.63300000
   C     33.73000000    42.33000000    99.30300000
   C     34.23000000    43.54000000    98.51300000
   O     34.51000000    44.62000000    99.03300000
   C     34.86000000    41.40000000    99.73300000
   C     34.49000000    40.23000000   100.65300000
   C     35.59000000    39.19000000   100.83300000
   O     36.29000000    39.00000000   101.85300000
   O     36.00000000    38.56000000    99.83300000
   H     33.07000000    40.78000000    98.02300000
   H     33.42000000    42.88000000   100.19300000
   H     35.64000000    41.93000000   100.27300000
   H     35.26000000    41.02000000    98.79300000
   H     33.67000000    39.67000000   100.22300000
   H     34.08000000    40.59000000   101.59300000
   N     34.21000000    43.44000000    97.18300000
   C     34.41000000    44.47000000    96.18300000
   H     35.44300000    44.44200000    95.83500000
   H     33.73900000    44.29600000    95.34200000
   H     34.20000000    45.44700000    96.61900000
   H     33.90000000    42.57000000    96.78300000
  Ca     37.93000000    37.08000000   101.01300000
   O     37.55000000    35.67000000    98.86000000
   H     38.28000000    35.10000000    99.11000000
   H     36.77000000    35.14000000    98.97000000
   O     35.61000000    35.53000000   101.16300000
   H     35.69000000    35.40000000   102.10300000
   H     34.81000000    35.07000000   100.92300000

Ca 1.00



