%chk=loop1.holoCaM-CaMKII.run10.water2.chk
%nprocshared=20
%mem=10GB
%nosave
#b3lyp/svp scf=(tight,noincore,xqc) Test 
#IOP(5/87=12) Density=Current Pop=(MK,readradii) iop(6/33=2) iop(6/42=6)

loop1.holoCaM-CaMKII.run10.water2 

   0  1 
   C     86.59000000    76.56000000    23.67000000
   C     87.91000000    77.32000000    23.71000000
   O     88.47000000    77.59000000    22.65000000
   H     85.83200000    77.17400000    23.18300000
   H     86.72000000    75.63400000    23.11100000
   H     86.27200000    76.32900000    24.68700000
   N     88.39000000    77.72000000    24.89000000
   C     89.53000000    78.60000000    25.01000000
   C     90.77000000    77.73000000    25.01000000
   O     91.17000000    77.25000000    26.07000000
   C     89.51000000    79.46000000    26.27000000
   C     90.78000000    80.25000000    26.53000000
   O     90.94000000    80.57000000    27.73000000
   O     91.53000000    80.63000000    25.61000000
   H     87.84000000    77.56000000    25.73000000
   H     89.60000000    79.22000000    24.12000000
   H     89.25000000    78.82000000    27.11000000
   H     88.61000000    80.09000000    26.23000000
   N     91.33000000    77.52000000    23.81000000
   C     92.39000000    76.56000000    23.61000000
   C     93.80000000    77.12000000    23.54000000
   O     94.79000000    76.39000000    23.41000000
   C     92.01000000    75.68000000    22.41000000
   C     91.25000000    74.37000000    22.50000000
   C     90.09000000    74.25000000    23.49000000
   C     89.99000000    72.78000000    23.86000000
   N     90.92000000    72.47000000    24.96000000
   H     91.01000000    78.18000000    23.11000000
   H     92.54000000    75.94000000    24.49000000
   H     92.98000000    75.33000000    22.05000000
   H     91.52000000    76.32000000    21.67000000
   H     92.02000000    73.60000000    22.61000000
   H     90.84000000    74.37000000    21.49000000
   H     89.17000000    74.53000000    22.98000000
   H     90.21000000    74.85000000    24.40000000
   H     90.21000000    72.21000000    22.95000000
   H     88.97000000    72.55000000    24.17000000
   H     91.01000000    73.17000000    25.69000000
   H     90.73000000    71.58000000    25.39000000
   H     91.90000000    72.39000000    24.74000000
   N     93.94000000    78.42000000    23.76000000
   C     95.25000000    79.01000000    23.95000000
   C     95.35000000    79.52000000    25.38000000
   O     96.47000000    79.80000000    25.78000000
   C     95.73000000    80.03000000    22.92000000
   C     94.70000000    80.98000000    22.30000000
   O     95.06000000    81.60000000    21.28000000
   O     93.64000000    81.34000000    22.85000000
   H     93.11000000    78.99000000    23.86000000
   H     96.04000000    78.26000000    23.87000000
   H     96.06000000    79.45000000    22.05000000
   H     96.61000000    80.54000000    23.31000000
   N     94.22000000    79.60000000    26.10000000
   C     94.25000000    79.71000000    27.54000000
   C     94.36000000    81.08000000    28.18000000
   O     94.93000000    81.12000000    29.27000000
   H     93.32000000    79.43000000    25.69000000
   H     95.02000000    79.00000000    27.88000000
   H     93.34000000    79.20000000    27.85000000
   N     93.81000000    82.13000000    27.55000000
   C     93.87000000    83.43000000    28.18000000
   C     92.69000000    83.73000000    29.10000000
   O     92.68000000    84.68000000    29.87000000
   C     93.89000000    84.54000000    27.13000000
   C     93.02000000    84.19000000    25.93000000
   O     91.78000000    84.09000000    26.10000000
   O     93.56000000    83.93000000    24.83000000
   H     93.46000000    82.02000000    26.61000000
   H     94.84000000    83.61000000    28.63000000
   H     94.91000000    84.60000000    26.75000000
   H     93.67000000    85.47000000    27.64000000
   N     91.64000000    82.91000000    28.99000000
   C     90.38000000    83.14000000    29.67000000
   C     89.28000000    83.83000000    28.88000000
   O     88.30000000    84.31000000    29.45000000
   H     91.70000000    82.07000000    28.44000000
   H     90.50000000    83.76000000    30.55000000
   H     90.01000000    82.15000000    29.93000000
   N     89.52000000    84.01000000    27.58000000
   C     88.55000000    84.63000000    26.71000000
   C     88.22000000    83.83000000    25.46000000
   O     89.02000000    83.00000000    25.03000000
   C     88.90000000    86.07000000    26.32000000
   C     88.92000000    87.05000000    27.49000000
   O     90.15000000    86.11000000    25.67000000
   H     90.39000000    83.68000000    27.18000000
   H     87.61000000    84.65000000    27.26000000
   H     88.13000000    86.42000000    25.63000000
   H     90.72000000    85.41000000    25.99000000
   H     89.31000000    88.00000000    27.13000000
   H     87.89000000    87.33000000    27.72000000
   H     89.45000000    86.60000000    28.34000000
   N     87.05000000    84.01000000    24.84000000
   C     86.61000000    83.27000000    23.68000000
   C     86.35000000    84.25000000    22.54000000
   O     85.67000000    85.25000000    22.77000000
   C     85.38000000    82.46000000    24.06000000
   C     85.63000000    81.43000000    25.16000000
   C     84.90000000    81.67000000    22.84000000
   C     84.34000000    81.06000000    25.89000000
   H     86.54000000    84.85000000    25.04000000
   H     87.47000000    82.66000000    23.38000000
   H     84.56000000    83.10000000    24.38000000
   H     86.43000000    81.71000000    25.84000000
   H     85.96000000    80.51000000    24.68000000
   H     84.59000000    82.34000000    22.04000000
   H     85.64000000    80.97000000    22.46000000
   H     83.96000000    81.15000000    23.04000000
   H     83.92000000    81.96000000    26.34000000
   H     83.69000000    80.48000000    25.23000000
   H     84.65000000    80.32000000    26.63000000
   N     87.02000000    84.03000000    21.41000000
   C     86.93000000    84.74000000    20.15000000
   C     85.89000000    84.15000000    19.21000000
   O     85.56000000    82.97000000    19.29000000
   C     88.27000000    84.66000000    19.42000000
   C     89.44000000    85.26000000    20.19000000
   O     88.73000000    83.34000000    19.24000000
   H     87.64000000    83.23000000    21.36000000
   H     86.70000000    85.78000000    20.37000000
   H     88.16000000    85.12000000    18.44000000
   H     89.02000000    83.10000000    20.12000000
   H     90.35000000    85.31000000    19.60000000
   H     89.28000000    86.34000000    20.29000000
   H     89.64000000    84.78000000    21.15000000
   N     85.40000000    84.93000000    18.25000000
   C     84.72000000    84.39000000    17.10000000
   C     85.36000000    83.16000000    16.47000000
   O     84.59000000    82.23000000    16.22000000
   C     84.52000000    85.46000000    16.03000000
   C     83.59000000    86.62000000    16.33000000
   O     85.71000000    85.96000000    15.46000000
   H     85.69000000    85.90000000    18.18000000
   H     83.76000000    83.98000000    17.42000000
   H     84.00000000    84.87000000    15.27000000
   H     85.39000000    86.38000000    14.65000000
   H     84.19000000    87.28000000    16.96000000
   H     83.26000000    87.03000000    15.37000000
   H     82.77000000    86.17000000    16.89000000
   N     86.69000000    83.09000000    16.40000000
   C     87.34000000    81.91000000    15.86000000
   C     87.23000000    80.70000000    16.79000000
   O     86.89000000    79.62000000    16.32000000
   C     88.78000000    82.28000000    15.53000000
   C     89.69000000    81.28000000    14.82000000
   C     89.38000000    80.84000000    13.39000000
   C     89.60000000    82.03000000    12.45000000
   N     88.96000000    81.68000000    11.17000000
   H     87.24000000    83.88000000    16.68000000
   H     86.83000000    81.63000000    14.94000000
   H     89.27000000    82.48000000    16.48000000
   H     88.94000000    83.18000000    14.93000000
   H     89.76000000    80.40000000    15.46000000
   H     90.69000000    81.70000000    14.73000000
   H     88.35000000    80.50000000    13.31000000
   H     90.11000000    80.12000000    13.04000000
   H     90.65000000    82.19000000    12.23000000
   H     89.09000000    82.91000000    12.83000000
   H     89.47000000    80.90000000    10.78000000
   H     87.99000000    81.45000000    11.29000000
   H     89.14000000    82.42000000    10.50000000
   N     87.53000000    80.88000000    18.08000000
   C     87.51000000    79.72000000    18.94000000
   C     86.13000000    79.12000000    19.16000000
   O     86.06000000    77.99000000    19.66000000
   C     87.99000000    80.30000000    20.27000000
   C     89.51000000    80.47000000    20.30000000
   C     89.98000000    81.18000000    21.56000000
   O     89.78000000    82.40000000    21.74000000
   O     90.63000000    80.55000000    22.43000000
   H     87.57000000    81.81000000    18.46000000
   H     88.10000000    78.88000000    18.56000000
   H     87.74000000    79.62000000    21.08000000
   H     87.49000000    81.23000000    20.52000000
   H     89.64000000    81.02000000    19.37000000
   H     90.06000000    79.55000000    20.11000000
   N     85.08000000    79.88000000    18.86000000
   C     83.72000000    79.37000000    18.77000000
   H     83.06800000    80.14400000    18.36500000
   H     83.70000000    78.49900000    18.11400000
   H     83.37200000    79.08600000    19.76300000
   H     85.24000000    80.83000000    18.58000000
  Ca     91.57000000    82.67000000    23.72000000
   O     91.31000000    85.12000000    23.07000000
   H     91.04000000    85.82000000    23.67000000
   H     91.42000000    85.56000000    22.23000000
   O     92.52000000    83.14000000    21.04000000
   H     92.20000000    82.71000000    20.24000000
   H     93.31000000    82.66000000    21.27000000

Ca 1.00



