%chk=loop1.holoCaM-CaMKII.run86.water2.chk
%nprocshared=20
%mem=10GB
%nosave
#b3lyp/svp scf=(tight,noincore,xqc) Test 
#IOP(5/87=12) Density=Current Pop=(MK,readradii) iop(6/33=2) iop(6/42=6)

loop1.holoCaM-CaMKII.run86.water2 

   0  1 
   C     60.35000000    31.27000000   -13.66000000
   C     61.59000000    30.95000000   -14.49000000
   O     61.43000000    30.16000000   -15.41000000
   H     59.50900000    30.67900000   -14.02200000
   H     60.54000000    31.02800000   -12.61400000
   H     60.11500000    32.33000000   -13.75100000
   N     62.74000000    31.50000000   -14.10000000
   C     63.93000000    31.32000000   -14.92000000
   C     64.56000000    29.95000000   -14.74000000
   O     65.31000000    29.72000000   -13.79000000
   C     64.91000000    32.47000000   -14.74000000
   C     66.04000000    32.47000000   -15.76000000
   O     67.01000000    33.25000000   -15.62000000
   O     66.04000000    31.69000000   -16.74000000
   H     62.83000000    31.97000000   -13.21000000
   H     63.56000000    31.33000000   -15.94000000
   H     65.43000000    32.42000000   -13.78000000
   H     64.53000000    33.49000000   -14.80000000
   N     64.21000000    28.97000000   -15.56000000
   C     64.72000000    27.62000000   -15.41000000
   C     66.19000000    27.48000000   -15.76000000
   O     66.80000000    26.52000000   -15.28000000
   C     63.85000000    26.60000000   -16.14000000
   C     62.46000000    26.55000000   -15.53000000
   C     62.41000000    26.09000000   -14.08000000
   C     61.00000000    25.61000000   -13.76000000
   N     60.00000000    26.70000000   -13.82000000
   H     63.49000000    29.07000000   -16.26000000
   H     64.73000000    27.28000000   -14.37000000
   H     64.29000000    25.60000000   -16.12000000
   H     63.83000000    26.89000000   -17.19000000
   H     61.82000000    25.82000000   -16.04000000
   H     62.08000000    27.56000000   -15.66000000
   H     62.69000000    26.87000000   -13.36000000
   H     62.99000000    25.19000000   -13.88000000
   H     61.02000000    25.16000000   -12.77000000
   H     60.80000000    24.75000000   -14.40000000
   H     60.10000000    27.45000000   -13.16000000
   H     60.14000000    27.24000000   -14.66000000
   H     59.07000000    26.30000000   -13.78000000
   N     66.80000000    28.43000000   -16.47000000
   C     68.21000000    28.39000000   -16.78000000
   C     68.94000000    29.16000000   -15.69000000
   O     70.04000000    28.75000000   -15.32000000
   C     68.54000000    29.00000000   -18.14000000
   C     67.52000000    28.63000000   -19.21000000
   O     66.70000000    29.53000000   -19.49000000
   O     67.35000000    27.45000000   -19.58000000
   H     66.27000000    29.13000000   -16.98000000
   H     68.49000000    27.34000000   -16.73000000
   H     69.54000000    28.74000000   -18.47000000
   H     68.58000000    30.09000000   -18.10000000
   N     68.48000000    30.32000000   -15.22000000
   C     69.39000000    31.28000000   -14.64000000
   C     70.22000000    32.13000000   -15.60000000
   O     71.38000000    32.45000000   -15.35000000
   H     67.58000000    30.61000000   -15.59000000
   H     70.06000000    30.79000000   -13.93000000
   H     68.80000000    32.07000000   -14.17000000
   N     69.63000000    32.51000000   -16.74000000
   C     70.11000000    33.49000000   -17.69000000
   C     69.83000000    34.95000000   -17.38000000
   O     70.29000000    35.87000000   -18.06000000
   C     69.89000000    33.15000000   -19.16000000
   C     68.45000000    32.93000000   -19.59000000
   O     68.29000000    32.14000000   -20.55000000
   O     67.52000000    33.49000000   -18.97000000
   H     68.64000000    32.31000000   -16.74000000
   H     71.19000000    33.61000000   -17.61000000
   H     70.43000000    32.27000000   -19.50000000
   H     70.24000000    33.91000000   -19.86000000
   N     68.96000000    35.19000000   -16.40000000
   C     68.36000000    36.45000000   -16.02000000
   C     67.21000000    36.92000000   -16.91000000
   O     66.85000000    38.09000000   -16.79000000
   H     68.47000000    34.38000000   -16.05000000
   H     69.13000000    37.21000000   -16.14000000
   H     67.98000000    36.44000000   -15.00000000
   N     66.56000000    36.08000000   -17.72000000
   C     65.47000000    36.50000000   -18.58000000
   C     64.41000000    35.41000000   -18.65000000
   O     64.75000000    34.23000000   -18.70000000
   C     65.85000000    36.98000000   -19.97000000
   C     66.18000000    38.47000000   -19.98000000
   O     67.01000000    36.30000000   -20.39000000
   H     66.79000000    35.10000000   -17.70000000
   H     64.97000000    37.38000000   -18.18000000
   H     65.00000000    36.83000000   -20.63000000
   H     66.95000000    35.52000000   -19.84000000
   H     67.03000000    38.74000000   -19.35000000
   H     66.53000000    38.72000000   -20.98000000
   H     65.28000000    39.05000000   -19.77000000
   N     63.10000000    35.70000000   -18.64000000
   C     61.93000000    34.85000000   -18.65000000
   C     61.25000000    34.99000000   -20.00000000
   O     60.91000000    36.10000000   -20.43000000
   C     61.07000000    35.23000000   -17.45000000
   C     61.81000000    34.90000000   -16.15000000
   C     59.70000000    34.58000000   -17.57000000
   C     61.34000000    35.69000000   -14.94000000
   H     62.90000000    36.69000000   -18.68000000
   H     62.33000000    33.85000000   -18.44000000
   H     60.95000000    36.31000000   -17.58000000
   H     62.90000000    34.92000000   -16.22000000
   H     61.62000000    33.85000000   -15.91000000
   H     59.01000000    34.87000000   -16.78000000
   H     59.28000000    35.00000000   -18.48000000
   H     59.76000000    33.50000000   -17.74000000
   H     61.82000000    35.53000000   -13.98000000
   H     61.56000000    36.76000000   -15.03000000
   H     60.28000000    35.45000000   -14.82000000
   N     61.04000000    33.84000000   -20.64000000
   C     60.39000000    33.62000000   -21.91000000
   C     58.87000000    33.49000000   -21.84000000
   O     58.28000000    33.12000000   -20.83000000
   C     60.96000000    32.40000000   -22.63000000
   C     62.44000000    32.54000000   -22.95000000
   O     60.83000000    31.33000000   -21.72000000
   H     61.31000000    33.04000000   -20.09000000
   H     60.63000000    34.50000000   -22.51000000
   H     60.44000000    32.19000000   -23.56000000
   H     61.56000000    31.27000000   -21.10000000
   H     62.67000000    33.42000000   -23.54000000
   H     62.94000000    32.76000000   -22.00000000
   H     62.82000000    31.66000000   -23.48000000
   N     58.25000000    33.62000000   -23.02000000
   C     56.88000000    33.19000000   -23.23000000
   C     56.71000000    31.74000000   -22.82000000
   O     55.66000000    31.42000000   -22.26000000
   C     56.41000000    33.21000000   -24.68000000
   C     55.93000000    34.60000000   -25.11000000
   O     57.43000000    32.79000000   -25.56000000
   H     58.79000000    34.04000000   -23.75000000
   H     56.28000000    33.82000000   -22.59000000
   H     55.52000000    32.61000000   -24.87000000
   H     57.21000000    33.19000000   -26.41000000
   H     56.72000000    35.19000000   -25.58000000
   H     55.09000000    34.45000000   -25.79000000
   H     55.51000000    35.14000000   -24.26000000
   N     57.67000000    30.84000000   -23.04000000
   C     57.62000000    29.46000000   -22.58000000
   C     57.78000000    29.37000000   -21.07000000
   O     57.05000000    28.65000000   -20.40000000
   C     58.63000000    28.65000000   -23.39000000
   C     58.48000000    27.19000000   -22.97000000
   C     59.32000000    26.17000000   -23.73000000
   C     59.07000000    26.44000000   -25.22000000
   N     59.89000000    25.51000000   -26.01000000
   H     58.39000000    31.19000000   -23.65000000
   H     56.62000000    29.06000000   -22.76000000
   H     59.65000000    28.97000000   -23.17000000
   H     58.40000000    28.75000000   -24.45000000
   H     57.41000000    26.99000000   -23.05000000
   H     58.80000000    27.13000000   -21.93000000
   H     59.08000000    25.16000000   -23.42000000
   H     60.38000000    26.32000000   -23.54000000
   H     59.23000000    27.45000000   -25.57000000
   H     58.01000000    26.27000000   -25.41000000
   H     59.73000000    24.55000000   -25.74000000
   H     59.62000000    25.60000000   -26.98000000
   H     60.89000000    25.59000000   -25.92000000
   N     58.67000000    30.09000000   -20.37000000
   C     58.93000000    29.96000000   -18.95000000
   C     57.79000000    30.47000000   -18.09000000
   O     57.50000000    30.06000000   -16.97000000
   C     60.23000000    30.65000000   -18.53000000
   C     61.45000000    29.78000000   -18.80000000
   C     62.76000000    30.55000000   -18.91000000
   O     63.76000000    30.26000000   -18.22000000
   O     62.81000000    31.53000000   -19.68000000
   H     59.20000000    30.74000000   -20.93000000
   H     58.96000000    28.89000000   -18.78000000
   H     60.19000000    30.91000000   -17.48000000
   H     60.25000000    31.61000000   -19.05000000
   H     61.35000000    29.24000000   -19.74000000
   H     61.51000000    29.09000000   -17.95000000
   N     57.01000000    31.44000000   -18.58000000
   C     55.83000000    32.02000000   -17.98000000
   H     54.99700000    31.32200000   -18.06900000
   H     56.02100000    32.22500000   -16.92600000
   H     55.58100000    32.95000000   -18.49200000
   H     57.33000000    31.86000000   -19.44000000
  Ca     65.61000000    31.82000000   -19.39600000
   O     65.69000000    33.86000000   -21.40600000
   H     66.31000000    34.52000000   -21.73600000
   H     65.22000000    33.57000000   -22.18600000
   O     64.94000000    30.98000000   -22.10600000
   H     65.61000000    30.63000000   -22.69600000
   H     64.23000000    30.34000000   -22.14600000

Ca 1.00



