%chk=loop2.holoCaM.run51.water1.chk
%nprocshared=20
%mem=10GB
%nosave
#b3lyp/svp scf=(tight,noincore,xqc) Test 
#IOP(5/87=12) Density=Current Pop=(MK,readradii) iop(6/33=2) iop(6/42=6)

loop2.holoCaM.run51.water1 

   -2  1 
   C     56.83000000    63.84000000     1.29900000
   C     55.77000000    64.67000000     2.00900000
   O     56.25000000    65.51000000     2.75900000
   H     57.74300000    63.83200000     1.89400000
   H     56.46900000    62.81900000     1.17400000
   H     57.03800000    64.27500000     0.32100000
   N     54.46000000    64.42000000     1.93900000
   C     53.50000000    65.15000000     2.73900000
   C     53.79000000    64.88000000     4.19900000
   O     53.87000000    63.75000000     4.67900000
   C     52.11000000    64.81000000     2.18900000
   C     51.01000000    65.58000000     2.88900000
   O     49.86000000    65.43000000     2.41900000
   O     51.25000000    66.50000000     3.69900000
   H     54.12000000    63.77000000     1.24900000
   H     53.58000000    66.22000000     2.53900000
   H     51.93000000    63.74000000     2.08900000
   H     52.08000000    65.10000000     1.13900000
   N     53.89000000    66.01000000     4.90900000
   C     54.19000000    66.16000000     6.31900000
   C     53.17000000    66.69000000     7.31900000
   O     53.51000000    67.13000000     8.41900000
   C     55.56000000    66.83000000     6.32900000
   H     54.00000000    66.84000000     4.35900000
   H     54.44000000    65.16000000     6.66900000
   H     55.38000000    67.90000000     6.40900000
   H     56.18000000    66.50000000     7.16900000
   H     56.03000000    66.52000000     5.38900000
   N     51.92000000    66.68000000     6.84900000
   C     50.70000000    67.04000000     7.53900000
   C     49.49000000    66.19000000     7.17900000
   O     48.58000000    66.01000000     7.98900000
   C     50.19000000    68.46000000     7.33900000
   C     50.36000000    68.91000000     5.88900000
   O     49.55000000    68.59000000     4.99900000
   O     51.33000000    69.60000000     5.49900000
   H     51.92000000    66.53000000     5.84900000
   H     50.95000000    67.02000000     8.60900000
   H     50.86000000    69.14000000     7.85900000
   H     49.14000000    68.50000000     7.65900000
   N     49.55000000    65.41000000     6.09900000
   C     48.69000000    64.28000000     5.83900000
   C     47.38000000    64.62000000     5.12900000
   O     46.37000000    63.92000000     5.08900000
   H     50.33000000    65.54000000     5.45900000
   H     48.49000000    63.82000000     6.80900000
   H     49.22000000    63.60000000     5.17900000
   N     47.25000000    65.84000000     4.60900000
   C     46.08000000    66.35000000     3.91900000
   C     46.02000000    66.10000000     2.41900000
   O     45.06000000    66.58000000     1.80900000
   C     45.99000000    67.85000000     4.14900000
   C     45.84000000    68.27000000     5.60900000
   N     46.93000000    68.81000000     6.14900000
   O     44.89000000    68.13000000     6.37900000
   H     47.99000000    66.53000000     4.65900000
   H     45.15000000    65.89000000     4.24900000
   H     45.11000000    68.23000000     3.61900000
   H     46.78000000    68.38000000     3.62900000
   H     47.79000000    68.85000000     5.62900000
   H     46.86000000    69.29000000     7.03900000
   N     46.95000000    65.32000000     1.85900000
   C     46.91000000    64.85000000     0.48900000
   C     47.13000000    65.99000000    -0.49100000
   O     46.45000000    66.04000000    -1.51100000
   H     47.78000000    65.15000000     2.40900000
   H     46.02000000    64.29000000     0.18900000
   H     47.76000000    64.19000000     0.38900000
   N     48.01000000    66.95000000    -0.19100000
   C     48.33000000    68.09000000    -1.03100000
   C     49.74000000    68.53000000    -0.66100000
   O     50.16000000    68.37000000     0.47900000
   C     47.44000000    69.33000000    -1.07100000
   C     45.99000000    69.09000000    -1.50100000
   O     47.35000000    69.97000000     0.18900000
   H     48.59000000    66.74000000     0.59900000
   H     48.27000000    67.77000000    -2.07100000
   H     47.92000000    70.03000000    -1.75100000
   H     46.56000000    70.52000000     0.14900000
   H     45.37000000    69.96000000    -1.73100000
   H     46.02000000    68.43000000    -2.37100000
   H     45.46000000    68.54000000    -0.73100000
   N     50.50000000    69.10000000    -1.60100000
   C     51.88000000    69.53000000    -1.52100000
   C     52.09000000    70.99000000    -1.12100000
   O     51.59000000    71.83000000    -1.87100000
   C     52.70000000    69.14000000    -2.74100000
   C     52.78000000    67.64000000    -3.00100000
   C     54.09000000    69.78000000    -2.71100000
   C     53.58000000    66.93000000    -1.91100000
   H     50.05000000    69.27000000    -2.49100000
   H     52.30000000    68.97000000    -0.69100000
   H     52.19000000    69.52000000    -3.63100000
   H     53.20000000    67.52000000    -4.00100000
   H     51.76000000    67.27000000    -3.03100000
   H     54.14000000    70.86000000    -2.85100000
   H     54.60000000    69.60000000    -1.76100000
   H     54.63000000    69.37000000    -3.57100000
   H     53.18000000    67.09000000    -0.91100000
   H     53.56000000    65.87000000    -2.17100000
   H     54.62000000    67.26000000    -1.91100000
   N     52.79000000    71.28000000    -0.02100000
   C     53.23000000    72.61000000     0.32900000
   C     54.57000000    72.94000000    -0.32100000
   O     55.30000000    72.02000000    -0.69100000
   C     53.34000000    72.72000000     1.84900000
   C     52.03000000    72.65000000     2.60900000
   O     51.68000000    71.51000000     2.99900000
   O     51.43000000    73.68000000     2.97900000
   H     53.08000000    70.57000000     0.63900000
   H     52.50000000    73.35000000    -0.01100000
   H     53.76000000    73.68000000     2.12900000
   H     53.92000000    71.89000000     2.25900000
   N     54.97000000    74.21000000    -0.46100000
   C     56.19000000    74.66000000    -1.11100000
   C     57.43000000    74.06000000    -0.46100000
   O     58.29000000    73.55000000    -1.18100000
   C     56.15000000    76.18000000    -1.13100000
   C     57.37000000    76.82000000    -1.76100000
   C     57.59000000    76.69000000    -3.14100000
   C     58.29000000    77.45000000    -0.93100000
   C     58.85000000    77.10000000    -3.59100000
   C     59.45000000    78.06000000    -1.43100000
   C     59.76000000    77.79000000    -2.77100000
   H     54.34000000    74.94000000    -0.17100000
   H     56.15000000    74.37000000    -2.16100000
   H     56.00000000    76.49000000    -0.10100000
   H     55.33000000    76.59000000    -1.71100000
   H     56.89000000    76.16000000    -3.76100000
   H     58.07000000    77.43000000     0.12900000
   H     59.03000000    76.93000000    -4.64100000
   H     60.26000000    78.42000000    -0.81100000
   H     60.64000000    78.22000000    -3.21100000
   N     57.51000000    73.94000000     0.85900000
   C     58.67000000    73.26000000     1.40900000
   C     58.70000000    71.83000000     0.90900000
   O     59.77000000    71.26000000     0.69900000
   C     58.48000000    73.33000000     2.92900000
   C     57.58000000    74.55000000     3.12900000
   C     56.73000000    74.65000000     1.85900000
   H     59.57000000    73.85000000     1.23900000
   H     58.00000000    72.41000000     3.27900000
   H     59.44000000    73.35000000     3.42900000
   H     56.87000000    74.43000000     3.94900000
   H     58.20000000    75.40000000     3.39900000
   H     55.74000000    74.22000000     1.97900000
   H     56.60000000    75.71000000     1.67900000
   N     57.55000000    71.19000000     0.68900000
   C     57.48000000    69.77000000     0.37900000
   C     57.83000000    69.56000000    -1.08100000
   O     58.56000000    68.65000000    -1.47100000
   C     56.09000000    69.19000000     0.61900000
   C     55.74000000    69.02000000     2.09900000
   C     54.25000000    68.83000000     2.33900000
   O     53.33000000    68.91000000     1.49900000
   O     53.89000000    68.50000000     3.48900000
   H     56.78000000    71.75000000     0.36900000
   H     58.20000000    69.14000000     0.90900000
   H     56.05000000    68.20000000     0.15900000
   H     55.51000000    69.91000000     0.03900000
   H     56.04000000    69.95000000     2.56900000
   H     56.33000000    68.21000000     2.52900000
   N     57.36000000    70.50000000    -1.90100000
   C     57.86000000    70.62000000    -3.26100000
   H     58.88500000    70.25200000    -3.30500000
   H     57.23400000    70.03200000    -3.93200000
   H     57.83700000    71.66600000    -3.56600000
   H     56.79000000    71.21000000    -1.45100000
  Ca     51.14000000    68.96000000     2.92000000
   O     48.84000000    70.22000000     2.38000000
   H     48.34000000    70.07000000     1.58000000
   H     48.21000000    70.58000000     2.99000000

Ca 1.00



