%chk=loop2.apoCaM-CA-Ng.Init295.run56.water4.chk
%nprocshared=20
%mem=10GB
%nosave
#b3lyp/svp scf=(tight,noincore,xqc) Test 
#IOP(5/87=12) Density=Current Pop=(MK,readradii) iop(6/33=2) iop(6/42=6)

loop2.apoCaM-CA-Ng.Init295.run56.water4 

   -2  1 
   C     88.61000000    81.52000000    30.23000000
   C     89.73000000    81.26000000    31.24000000
   O     90.64000000    82.08000000    31.30000000
   H     87.77500000    82.00900000    30.73200000
   H     88.98100000    82.16400000    29.43300000
   H     88.27500000    80.57300000    29.80700000
   N     89.74000000    80.13000000    31.95000000
   C     90.91000000    79.65000000    32.66000000
   C     91.15000000    80.20000000    34.06000000
   O     91.76000000    79.60000000    34.94000000
   C     91.00000000    78.13000000    32.62000000
   C     92.39000000    77.55000000    32.42000000
   O     92.91000000    76.90000000    33.35000000
   O     92.85000000    77.71000000    31.27000000
   H     88.95000000    79.51000000    31.83000000
   H     91.79000000    80.01000000    32.13000000
   H     90.34000000    77.76000000    31.83000000
   H     90.59000000    77.75000000    33.56000000
   N     90.58000000    81.38000000    34.34000000
   C     90.65000000    82.10000000    35.59000000
   C     89.40000000    82.95000000    35.67000000
   O     88.85000000    83.34000000    34.64000000
   C     91.94000000    82.91000000    35.73000000
   H     89.92000000    81.76000000    33.68000000
   H     90.53000000    81.50000000    36.49000000
   H     92.07000000    83.26000000    36.76000000
   H     92.74000000    82.21000000    35.48000000
   H     92.04000000    83.67000000    34.96000000
   N     88.97000000    83.45000000    36.83000000
   C     89.46000000    83.12000000    38.15000000
   C     88.93000000    81.82000000    38.74000000
   O     87.82000000    81.40000000    38.42000000
   C     89.09000000    84.27000000    39.08000000
   C     89.69000000    85.61000000    38.68000000
   O     90.90000000    85.65000000    38.37000000
   O     88.95000000    86.62000000    38.74000000
   H     88.09000000    83.95000000    36.79000000
   H     90.54000000    82.96000000    38.14000000
   H     89.41000000    84.00000000    40.09000000
   H     88.01000000    84.28000000    39.14000000
   N     89.58000000    81.32000000    39.79000000
   C     89.11000000    80.10000000    40.42000000
   C     89.19000000    78.95000000    39.43000000
   O     90.14000000    78.91000000    38.65000000
   H     90.57000000    81.51000000    39.87000000
   H     88.04000000    80.24000000    40.60000000
   H     89.71000000    80.02000000    41.32000000
   N     88.22000000    78.02000000    39.46000000
   C     87.19000000    77.75000000    40.43000000
   C     85.85000000    78.43000000    40.20000000
   O     84.89000000    78.07000000    40.88000000
   C     87.11000000    76.26000000    40.75000000
   C     88.41000000    75.47000000    40.80000000
   N     88.98000000    75.31000000    41.99000000
   O     88.87000000    74.80000000    39.87000000
   H     88.32000000    77.30000000    38.75000000
   H     87.50000000    78.17000000    41.38000000
   H     86.47000000    75.85000000    39.96000000
   H     86.47000000    76.06000000    41.61000000
   H     88.63000000    75.77000000    42.82000000
   H     89.90000000    74.90000000    42.11000000
   N     85.78000000    79.35000000    39.23000000
   C     84.60000000    80.12000000    38.90000000
   C     84.43000000    81.40000000    39.70000000
   O     83.32000000    81.71000000    40.14000000
   H     86.64000000    79.65000000    38.79000000
   H     83.69000000    79.51000000    38.94000000
   H     84.65000000    80.43000000    37.86000000
   N     85.46000000    82.19000000    40.00000000
   C     85.39000000    83.28000000    40.94000000
   C     85.29000000    84.61000000    40.22000000
   O     85.86000000    85.60000000    40.67000000
   C     86.59000000    83.20000000    41.88000000
   C     86.47000000    83.85000000    43.26000000
   O     86.84000000    81.84000000    42.13000000
   H     86.38000000    81.91000000    39.67000000
   H     84.53000000    83.13000000    41.60000000
   H     87.53000000    83.48000000    41.39000000
   H     87.71000000    81.72000000    42.52000000
   H     85.67000000    83.41000000    43.85000000
   H     87.41000000    83.78000000    43.81000000
   H     86.33000000    84.92000000    43.13000000
   N     84.58000000    84.72000000    39.09000000
   C     84.49000000    85.90000000    38.26000000
   C     83.54000000    86.97000000    38.78000000
   O     82.56000000    86.62000000    39.43000000
   C     84.09000000    85.59000000    36.82000000
   C     85.19000000    84.88000000    36.05000000
   C     82.76000000    84.87000000    36.63000000
   C     85.62000000    83.46000000    36.40000000
   H     84.07000000    83.90000000    38.78000000
   H     85.49000000    86.34000000    38.23000000
   H     84.02000000    86.60000000    36.41000000
   H     86.06000000    85.53000000    36.12000000
   H     84.92000000    84.88000000    34.99000000
   H     82.80000000    83.89000000    37.10000000
   H     81.89000000    85.38000000    37.04000000
   H     82.49000000    84.78000000    35.58000000
   H     86.16000000    83.48000000    37.35000000
   H     84.70000000    82.87000000    36.49000000
   H     86.20000000    83.00000000    35.60000000
   N     83.85000000    88.23000000    38.47000000
   C     83.02000000    89.36000000    38.83000000
   C     82.08000000    89.85000000    37.73000000
   O     81.89000000    89.21000000    36.70000000
   C     83.95000000    90.41000000    39.42000000
   C     84.94000000    90.84000000    38.34000000
   O     86.01000000    90.20000000    38.26000000
   O     84.69000000    91.79000000    37.57000000
   H     84.66000000    88.35000000    37.88000000
   H     82.34000000    89.10000000    39.65000000
   H     84.45000000    89.98000000    40.28000000
   H     83.46000000    91.32000000    39.77000000
   N     81.32000000    90.89000000    38.09000000
   C     80.20000000    91.28000000    37.26000000
   C     80.51000000    91.40000000    35.78000000
   O     79.83000000    90.79000000    34.97000000
   C     79.01000000    90.38000000    37.58000000
   C     77.73000000    91.11000000    37.91000000
   C     76.94000000    91.67000000    36.89000000
   C     77.47000000    91.34000000    39.26000000
   C     75.85000000    92.47000000    37.26000000
   C     76.30000000    92.01000000    39.63000000
   C     75.52000000    92.59000000    38.62000000
   H     81.57000000    91.42000000    38.91000000
   H     79.90000000    92.31000000    37.46000000
   H     79.27000000    89.74000000    38.42000000
   H     78.76000000    89.65000000    36.80000000
   H     77.29000000    91.55000000    35.88000000
   H     78.09000000    90.80000000    39.96000000
   H     75.23000000    92.98000000    36.55000000
   H     75.95000000    92.23000000    40.63000000
   H     74.62000000    93.12000000    38.89000000
   N     81.57000000    92.10000000    35.35000000
   C     81.91000000    92.23000000    33.95000000
   C     82.62000000    91.06000000    33.28000000
   O     82.48000000    90.94000000    32.07000000
   C     82.70000000    93.53000000    33.84000000
   C     82.18000000    94.33000000    35.03000000
   C     82.08000000    93.24000000    36.09000000
   H     80.97000000    92.43000000    33.43000000
   H     83.77000000    93.37000000    33.94000000
   H     82.44000000    94.02000000    32.90000000
   H     82.91000000    95.10000000    35.29000000
   H     81.17000000    94.74000000    34.91000000
   H     83.00000000    93.04000000    36.64000000
   H     81.45000000    93.48000000    36.94000000
   N     83.19000000    90.19000000    34.12000000
   C     83.81000000    88.96000000    33.68000000
   C     82.85000000    87.79000000    33.51000000
   O     83.10000000    86.90000000    32.71000000
   C     84.84000000    88.55000000    34.74000000
   C     86.10000000    89.42000000    34.69000000
   C     87.14000000    89.04000000    35.74000000
   O     87.10000000    87.91000000    36.27000000
   O     88.02000000    89.88000000    36.03000000
   H     83.22000000    90.50000000    35.08000000
   H     84.22000000    89.15000000    32.69000000
   H     85.10000000    87.53000000    34.45000000
   H     84.44000000    88.51000000    35.75000000
   H     85.85000000    90.48000000    34.71000000
   H     86.60000000    89.23000000    33.74000000
   N     81.69000000    87.85000000    34.17000000
   C     80.58000000    86.93000000    34.01000000
   H     79.73500000    87.45500000    33.56600000
   H     80.87900000    86.10800000    33.35900000
   H     80.29100000    86.53600000    34.98400000
   H     81.61000000    88.61000000    34.83000000
  Ca     88.37000000    89.17000000    38.53000000
   O     87.09000000    88.08000000    40.76000000
   H     87.52000000    88.29000000    41.59000000
   H     86.79000000    87.18000000    40.88000000
   O     90.11000000    91.12000000    38.16000000
   H     90.19000000    92.03000000    38.46000000
   H     90.60000000    91.10000000    37.34000000
   O     90.53000000    88.28000000    37.10000000
   H     91.26000000    88.64000000    36.60000000
   H     90.85000000    87.45000000    37.44000000
   O     90.28000000    88.54000000    40.37000000
   H     90.05000000    87.63000000    40.17000000
   H     90.46000000    88.53000000    41.31000000

Ca 1.00



