%chk=loop3.apoCaM-CA-Ng.Init31.run38.water6.chk
%nprocshared=20
%mem=10GB
%nosave
#b3lyp/svp scf=(tight,noincore,xqc) Test 
#IOP(5/87=12) Density=Current Pop=(MK,readradii) iop(6/33=2) iop(6/42=6)

loop3.apoCaM-CA-Ng.Init31.run38.water6 

   0  1 
   C     97.47000000    40.81000000   108.94000000
   C     98.58000000    41.85000000   108.89000000
   O     98.68000000    42.61000000   107.92000000
   H     96.59500000    41.18800000   108.41200000
   H     97.81100000    39.89000000   108.46500000
   H     97.20800000    40.60700000   109.97800000
   N     99.41000000    41.95000000   109.93000000
   C    100.46000000    42.92000000   110.18000000
   C    101.82000000    42.25000000   110.32000000
   O    101.84000000    41.06000000   110.63000000
   C    100.17000000    43.81000000   111.39000000
   C     99.95000000    43.03000000   112.68000000
   O     98.80000000    42.77000000   113.11000000
   O    100.99000000    42.68000000   113.28000000
   H     99.26000000    41.32000000   110.70000000
   H    100.54000000    43.66000000   109.39000000
   H     99.34000000    44.50000000   111.22000000
   H    101.03000000    44.44000000   111.61000000
   N    102.88000000    43.04000000   110.13000000
   C    104.27000000    42.66000000   110.27000000
   C    104.74000000    41.44000000   109.50000000
   O    105.47000000    40.60000000   110.04000000
   C    105.13000000    43.81000000   109.77000000
   C    105.17000000    45.03000000   110.68000000
   C    105.78000000    46.31000000   110.10000000
   C    107.24000000    46.05000000   109.77000000
   N    107.75000000    47.08000000   108.85000000
   H    102.73000000    43.98000000   109.79000000
   H    104.42000000    42.45000000   111.33000000
   H    104.70000000    43.97000000   108.78000000
   H    106.13000000    43.41000000   109.59000000
   H    105.69000000    44.85000000   111.62000000
   H    104.16000000    45.25000000   111.05000000
   H    105.58000000    47.15000000   110.77000000
   H    105.23000000    46.49000000   109.18000000
   H    107.31000000    45.08000000   109.27000000
   H    107.87000000    45.90000000   110.64000000
   H    108.69000000    46.83000000   108.57000000
   H    107.20000000    47.09000000   108.00000000
   H    107.85000000    48.00000000   109.25000000
   N    104.23000000    41.29000000   108.28000000
   C    104.27000000    40.08000000   107.48000000
   C    104.57000000    40.23000000   106.00000000
   O    105.08000000    39.30000000   105.37000000
   C    102.91000000    39.41000000   107.61000000
   C    101.80000000    40.22000000   106.95000000
   O    100.65000000    39.74000000   106.79000000
   O    101.92000000    41.42000000   106.63000000
   H    103.65000000    42.02000000   107.89000000
   H    104.89000000    39.28000000   107.89000000
   H    102.73000000    39.45000000   108.68000000
   H    102.85000000    38.37000000   107.27000000
   N    104.55000000    41.44000000   105.44000000
   C    104.91000000    41.84000000   104.10000000
   C    106.32000000    42.39000000   103.97000000
   O    107.14000000    41.97000000   104.79000000
   H    104.10000000    42.15000000   106.00000000
   H    104.14000000    42.52000000   103.72000000
   H    104.87000000    40.88000000   103.58000000
   N    106.65000000    43.13000000   102.91000000
   C    105.73000000    43.62000000   101.90000000
   C    104.88000000    44.78000000   102.41000000
   O    105.28000000    45.57000000   103.27000000
   C    106.46000000    43.97000000   100.60000000
   C    107.02000000    42.76000000    99.87000000
   N    106.58000000    42.49000000    98.64000000
   O    107.79000000    41.98000000   100.42000000
   H    107.63000000    43.38000000   102.93000000
   H    105.12000000    42.78000000   101.57000000
   H    107.29000000    44.64000000   100.81000000
   H    105.79000000    44.51000000    99.93000000
   H    106.09000000    43.18000000    98.09000000
   H    106.99000000    41.66000000    98.22000000
   N    103.61000000    44.86000000   102.03000000
   C    102.91000000    44.39000000   100.85000000
   C    102.37000000    42.97000000   100.85000000
   O    102.63000000    42.11000000   101.69000000
   H    103.13000000    45.65000000   102.43000000
   H    103.55000000    44.55000000    99.98000000
   H    102.05000000    45.07000000   100.78000000
   N    101.54000000    42.73000000    99.84000000
   C    100.86000000    41.46000000    99.60000000
   C    101.85000000    40.41000000    99.11000000
   O    102.63000000    40.65000000    98.19000000
   C     99.61000000    41.59000000    98.75000000
   C     98.52000000    42.42000000    99.39000000
   C     97.70000000    41.82000000   100.36000000
   C     98.40000000    43.79000000    99.12000000
   C     96.81000000    42.61000000   101.09000000
   C     97.53000000    44.60000000    99.86000000
   C     96.67000000    43.98000000   100.79000000
   O     95.82000000    44.74000000   101.54000000
   H    101.19000000    43.43000000    99.21000000
   H    100.52000000    41.07000000   100.56000000
   H     99.26000000    40.57000000    98.59000000
   H     99.82000000    41.92000000    97.73000000
   H     97.71000000    40.76000000   100.58000000
   H     99.00000000    44.31000000    98.40000000
   H     96.15000000    42.22000000   101.85000000
   H     97.49000000    45.67000000    99.69000000
   H     95.89000000    45.67000000   101.31000000
   N    101.85000000    39.28000000    99.82000000
   C    102.80000000    38.22000000    99.54000000
   C    102.13000000    37.11000000    98.75000000
   O    102.88000000    36.47000000    98.01000000
   C    103.57000000    37.80000000   100.79000000
   C    104.29000000    38.88000000   101.60000000
   C    102.56000000    37.11000000   101.70000000
   C    105.29000000    39.73000000   100.83000000
   H    101.05000000    39.08000000   100.41000000
   H    103.52000000    38.64000000    98.85000000
   H    104.29000000    37.03000000   100.54000000
   H    104.85000000    38.35000000   102.38000000
   H    103.59000000    39.59000000   102.02000000
   H    103.08000000    36.59000000   102.51000000
   H    101.86000000    37.80000000   102.19000000
   H    101.88000000    36.42000000   101.20000000
   H    106.00000000    40.22000000   101.50000000
   H    105.81000000    39.08000000   100.13000000
   H    104.80000000    40.52000000   100.26000000
   N    100.82000000    36.89000000    98.82000000
   C    100.01000000    36.15000000    97.87000000
   C     99.55000000    34.78000000    98.34000000
   O     99.28000000    34.04000000    97.39000000
   C     98.78000000    36.92000000    97.39000000
   O     97.99000000    37.16000000    98.54000000
   H    100.32000000    37.54000000    99.41000000
   H    100.69000000    36.03000000    97.03000000
   H     98.22000000    36.31000000    96.67000000
   H     99.07000000    37.83000000    96.86000000
   H     98.43000000    37.74000000    99.16000000
   N     99.46000000    34.53000000    99.65000000
   C     99.01000000    33.31000000   100.29000000
   C     98.74000000    33.57000000   101.77000000
   O     99.41000000    34.38000000   102.41000000
   C    100.02000000    32.19000000   100.03000000
   H     99.57000000    35.30000000   100.29000000
   H     98.12000000    33.01000000    99.75000000
   H     99.65000000    31.27000000   100.49000000
   H    100.30000000    31.95000000    99.00000000
   H    100.95000000    32.31000000   100.58000000
   N     97.78000000    32.75000000   102.20000000
   C     97.18000000    32.77000000   103.52000000
   C     96.72000000    34.05000000   104.21000000
   O     96.39000000    33.99000000   105.39000000
   C     98.10000000    31.98000000   104.45000000
   H     97.61000000    31.95000000   101.62000000
   H     96.24000000    32.23000000   103.57000000
   H     99.10000000    32.42000000   104.44000000
   H     97.61000000    31.76000000   105.39000000
   H     98.33000000    31.00000000   104.03000000
   N     96.56000000    35.10000000   103.41000000
   C     96.19000000    36.38000000   103.97000000
   C     94.92000000    37.03000000   103.42000000
   O     94.27000000    37.81000000   104.11000000
   C     97.37000000    37.33000000   103.77000000
   C     97.58000000    37.83000000   102.34000000
   C     98.98000000    38.30000000   101.97000000
   O     99.64000000    38.82000000   102.89000000
   O     99.34000000    38.34000000   100.77000000
   H     96.77000000    35.05000000   102.42000000
   H     96.00000000    36.32000000   105.05000000
   H     98.33000000    36.96000000   104.13000000
   H     97.08000000    38.20000000   104.35000000
   H     96.87000000    38.62000000   102.10000000
   H     97.42000000    37.00000000   101.65000000
   N     94.57000000    36.69000000   102.18000000
   C     93.25000000    36.90000000   101.61000000
   H     92.57900000    37.28000000   102.38000000
   H     93.31600000    37.62300000   100.79700000
   H     92.86500000    35.95500000   101.22700000
   H     95.17000000    36.02000000   101.73000000
  Ca     99.92800000    42.50000000   105.42800000
   O     98.32000000    41.00000000   104.18800000
   H     97.39000000    40.81000000   104.31800000
   H     98.64000000    40.31000000   103.61800000
   O    101.16800000    40.87000000   103.64800000
   H    100.73800000    40.09000000   103.28800000
   H    101.70800000    41.19000000   102.92800000
   O     99.26000000    43.74000000   103.17800000
   H     99.26000000    44.69000000   103.06800000
   H     99.03000000    43.40000000   102.31800000
   O     97.42000000    44.12000000   105.56800000
   H     96.53000000    43.76000000   105.50800000
   H     97.39000000    44.90000000   105.00800000
   O    102.14800000    43.78000000   104.76800000
   H    102.95800000    44.02000000   105.21800000
   H    102.02800000    44.47000000   104.11800000
   O    100.40800000    44.75000000   106.94800000
   H    100.55800000    45.65000000   106.66800000
   H    100.41800000    44.79000000   107.90800000

Ca 1.00



