%chk=loop1.apoCaM-CA-Ng.Init295.run94.water7.chk
%nprocshared=20
%mem=10GB
%nosave
#b3lyp/svp scf=(tight,noincore,xqc) Test 
#IOP(5/87=12) Density=Current Pop=(MK,readradii) iop(6/33=2) iop(6/42=6)

loop1.apoCaM-CA-Ng.Init295.run94.water7 

   0  1 
   C     94.48000000   109.85000000    79.35000000
   C     93.12000000   110.44000000    79.00000000
   O     92.10000000   110.23000000    79.66000000
   H     95.19100000   110.65700000    79.52700000
   H     94.39200000   109.24100000    80.24900000
   H     94.83200000   109.23100000    78.52400000
   N     93.07000000   111.34000000    78.01000000
   C     91.91000000   111.97000000    77.44000000
   C     91.49000000   111.31000000    76.14000000
   O     92.25000000   110.55000000    75.53000000
   C     92.16000000   113.48000000    77.36000000
   C     92.42000000   114.18000000    78.69000000
   O     91.45000000   114.66000000    79.33000000
   O     93.59000000   114.35000000    79.09000000
   H     93.95000000   111.57000000    77.56000000
   H     91.03000000   111.83000000    78.06000000
   H     91.30000000   113.91000000    76.86000000
   H     92.96000000   113.62000000    76.63000000
   N     90.26000000   111.55000000    75.68000000
   C     89.73000000   111.02000000    74.44000000
   C     90.21000000   111.63000000    73.13000000
   O     89.79000000   111.26000000    72.04000000
   C     88.21000000   111.11000000    74.56000000
   C     87.61000000   110.14000000    75.58000000
   C     86.10000000   110.37000000    75.61000000
   C     85.44000000   109.28000000    76.45000000
   N     83.98000000   109.43000000    76.48000000
   H     89.53000000   112.14000000    76.07000000
   H     90.02000000   109.98000000    74.31000000
   H     87.69000000   110.95000000    73.62000000
   H     87.96000000   112.07000000    75.02000000
   H     88.01000000   110.34000000    76.57000000
   H     87.89000000   109.12000000    75.30000000
   H     85.69000000   110.26000000    74.60000000
   H     85.85000000   111.37000000    75.95000000
   H     85.87000000   109.19000000    77.44000000
   H     85.73000000   108.28000000    76.11000000
   H     83.59000000   109.26000000    75.56000000
   H     83.58000000   108.82000000    77.19000000
   H     83.69000000   110.37000000    76.69000000
   N     90.97000000   112.70000000    73.37000000
   C     91.42000000   113.56000000    72.29000000
   C     92.65000000   114.40000000    72.59000000
   O     92.80000000   115.04000000    73.63000000
   C     90.26000000   114.49000000    71.95000000
   C     90.61000000   115.35000000    70.75000000
   O     90.55000000   116.60000000    70.77000000
   O     90.85000000   114.89000000    69.61000000
   H     91.31000000   112.97000000    74.29000000
   H     91.59000000   112.95000000    71.40000000
   H     90.12000000   115.14000000    72.82000000
   H     89.31000000   113.99000000    71.76000000
   N     93.60000000   114.44000000    71.65000000
   C     94.74000000   115.33000000    71.54000000
   C     95.52000000   115.11000000    70.25000000
   O     95.30000000   114.07000000    69.63000000
   H     93.49000000   113.77000000    70.91000000
   H     95.43000000   115.25000000    72.37000000
   H     94.35000000   116.35000000    71.49000000
   N     96.38000000   116.02000000    69.81000000
   C     97.22000000   115.88000000    68.64000000
   C     98.69000000   115.68000000    68.95000000
   O     99.30000000   116.39000000    69.75000000
   C     97.16000000   117.04000000    67.65000000
   C     95.75000000   117.39000000    67.21000000
   O     95.29000000   118.47000000    67.63000000
   O     95.17000000   116.72000000    66.33000000
   H     96.40000000   116.92000000    70.29000000
   H     96.92000000   114.97000000    68.11000000
   H     97.73000000   116.78000000    66.76000000
   H     97.61000000   117.96000000    68.02000000
   N     99.30000000   114.64000000    68.38000000
   C    100.70000000   114.26000000    68.41000000
   C    101.11000000   113.63000000    69.74000000
   O    102.26000000   113.26000000    69.96000000
   H     98.70000000   114.05000000    67.82000000
   H    101.38000000   115.10000000    68.29000000
   H    100.92000000   113.55000000    67.61000000
   N    100.22000000   113.49000000    70.73000000
   C    100.37000000   112.77000000    71.98000000
   C    101.01000000   113.65000000    73.04000000
   O    100.95000000   114.87000000    72.98000000
   C     99.05000000   112.28000000    72.57000000
   C     97.96000000   113.30000000    72.90000000
   O     98.49000000   111.39000000    71.63000000
   H     99.31000000   113.87000000    70.51000000
   H    100.94000000   111.86000000    71.78000000
   H     99.26000000   111.67000000    73.45000000
   H     97.76000000   110.83000000    71.88000000
   H     97.57000000   113.85000000    72.05000000
   H     97.23000000   112.80000000    73.53000000
   H     98.31000000   114.08000000    73.58000000
   N    101.70000000   113.03000000    74.00000000
   C    102.25000000   113.75000000    75.14000000
   C    103.76000000   113.88000000    75.09000000
   O    104.42000000   114.05000000    76.11000000
   C    101.81000000   113.14000000    76.47000000
   C    102.22000000   111.68000000    76.64000000
   C    100.28000000   113.23000000    76.55000000
   C    102.29000000   111.14000000    78.06000000
   H    102.09000000   112.12000000    73.80000000
   H    101.90000000   114.78000000    75.20000000
   H    102.20000000   113.70000000    77.31000000
   H    103.23000000   111.57000000    76.26000000
   H    101.61000000   110.99000000    76.04000000
   H     99.75000000   112.71000000    75.76000000
   H     99.95000000   112.80000000    77.50000000
   H    100.00000000   114.27000000    76.75000000
   H    102.90000000   111.83000000    78.66000000
   H    101.31000000   111.14000000    78.54000000
   H    102.77000000   110.17000000    77.98000000
   N    104.42000000   113.75000000    73.93000000
   C    105.86000000   113.73000000    73.77000000
   C    106.41000000   112.72000000    72.77000000
   O    105.88000000   112.58000000    71.67000000
   C    106.34000000   115.13000000    73.40000000
   C    107.85000000   115.21000000    73.64000000
   O    105.99000000   115.51000000    72.09000000
   H    103.85000000   113.63000000    73.10000000
   H    106.37000000   113.53000000    74.71000000
   H    105.90000000   115.91000000    74.03000000
   H    105.03000000   115.48000000    72.01000000
   H    108.15000000   116.25000000    73.76000000
   H    108.11000000   114.70000000    74.57000000
   H    108.43000000   114.79000000    72.82000000
   N    107.44000000   112.01000000    73.23000000
   C    108.03000000   110.96000000    72.43000000
   C    108.41000000   109.71000000    73.21000000
   O    108.76000000   108.68000000    72.64000000
   C    109.28000000   111.54000000    71.77000000
   C    110.31000000   112.25000000    72.65000000
   O    108.93000000   112.41000000    70.73000000
   H    107.82000000   112.29000000    74.12000000
   H    107.23000000   110.75000000    71.73000000
   H    109.82000000   110.71000000    71.30000000
   H    109.74000000   112.35000000    70.22000000
   H    109.86000000   113.18000000    73.01000000
   H    110.56000000   111.70000000    73.56000000
   H    111.19000000   112.44000000    72.05000000
   N    108.58000000   109.82000000    74.53000000
   C    108.95000000   108.68000000    75.34000000
   C    107.94000000   107.54000000    75.29000000
   O    106.73000000   107.71000000    75.44000000
   C    109.49000000   109.06000000    76.71000000
   C    108.50000000   109.29000000    77.85000000
   C    108.36000000   108.19000000    78.90000000
   C    109.64000000   107.87000000    79.67000000
   N    109.41000000   106.77000000    80.61000000
   H    108.32000000   110.69000000    74.97000000
   H    109.81000000   108.26000000    74.81000000
   H    110.03000000   110.00000000    76.62000000
   H    110.24000000   108.31000000    76.99000000
   H    107.51000000   109.26000000    77.38000000
   H    108.73000000   110.22000000    78.37000000
   H    108.07000000   107.26000000    78.42000000
   H    107.52000000   108.40000000    79.57000000
   H    110.00000000   108.79000000    80.13000000
   H    110.36000000   107.48000000    78.95000000
   H    109.22000000   105.93000000    80.09000000
   H    110.18000000   106.68000000    81.26000000
   H    108.62000000   106.94000000    81.21000000
   N    108.42000000   106.30000000    75.27000000
   C    107.53000000   105.17000000    75.17000000
   C    106.86000000   104.96000000    73.82000000
   O    107.41000000   105.39000000    72.81000000
   C    108.33000000   103.90000000    75.48000000
   C    108.29000000   103.49000000    76.94000000
   C    108.91000000   104.46000000    77.94000000
   O    110.01000000   105.02000000    77.69000000
   O    108.18000000   104.79000000    78.89000000
   H    109.41000000   106.11000000    75.15000000
   H    106.83000000   105.16000000    76.01000000
   H    109.38000000   104.07000000    75.21000000
   H    107.85000000   103.10000000    74.92000000
   H    108.76000000   102.53000000    77.11000000
   H    107.21000000   103.45000000    77.12000000
   N    105.67000000   104.37000000    73.68000000
   C    104.76000000   103.99000000    74.74000000
   H    103.80500000   103.69100000    74.30800000
   H    105.18200000   103.15600000    75.30000000
   H    104.60600000   104.83700000    75.40900000
   H    105.28000000   104.41000000    72.75000000
  Ca     90.48000000   117.00200000    68.20000000
   O     89.60000000   119.17200000    69.60000000
   H     89.04000000   119.82200000    69.18000000
   H     90.13000000   119.69200000    70.21000000
   O     89.16000000   117.90200000    66.10000000
   H     89.24000000   117.30200000    65.36000000
   H     88.24000000   118.17200000    66.10000000
   O     90.37000000   114.98200000    66.61000000
   H     89.61000000   114.41200000    66.71000000
   H     90.42000000   115.14200000    65.67000000
   O     92.85000000   117.73200000    69.44000000
   H     92.83000000   118.22200000    70.26000000
   H     93.40000000   118.25200000    68.85000000
   O     92.59000000   116.44200000    66.64000000
   H     92.51000000   115.95200000    65.82000000
   H     93.51000000   116.70200000    66.67000000
   O     87.84000000   116.55200000    68.60000000
   H     87.16000000   117.20200000    68.76000000
   H     87.45000000   115.72200000    68.88000000
   O     91.60000000   119.45200000    67.20000000
   H     91.31000000   119.93200000    66.43000000
   H     92.33000000   119.96200000    67.55000000

Ca 1.00



