%chk=loop2.holoCaM-CaMKII.run47.water2.chk
%nprocshared=20
%mem=10GB
%nosave
#b3lyp/svp scf=(tight,noincore,xqc) Test 
#IOP(5/87=12) Density=Current Pop=(MK,readradii) iop(6/33=2) iop(6/42=6)

loop2.holoCaM-CaMKII.run47.water2 

   -2  1 
   C     -1.66000000    39.35000000    19.92300000
   C     -2.32000000    38.24000000    19.11300000
   O     -1.93000000    38.02000000    17.97300000
   H     -0.73900000    39.66100000    19.42900000
   H     -2.33800000    40.20000000    19.99500000
   H     -1.42900000    38.98300000    20.92300000
   N     -3.32000000    37.55000000    19.66300000
   C     -3.85000000    36.36000000    19.02300000
   C     -4.85000000    36.72000000    17.93300000
   O     -5.81000000    37.46000000    18.09300000
   C     -4.45000000    35.41000000    20.06300000
   C     -5.02000000    34.15000000    19.42300000
   O     -6.21000000    33.92000000    19.74300000
   O     -4.38000000    33.46000000    18.60300000
   H     -3.59000000    37.79000000    20.60300000
   H     -3.02000000    35.74000000    18.70300000
   H     -5.33000000    35.91000000    20.46300000
   H     -3.65000000    35.13000000    20.75300000
   N     -4.71000000    35.94000000    16.85300000
   C     -5.68000000    35.88000000    15.78300000
   C     -6.29000000    34.50000000    15.58300000
   O     -7.16000000    34.36000000    14.72300000
   C     -5.10000000    36.51000000    14.51300000
   H     -3.92000000    35.32000000    16.78300000
   H     -6.49000000    36.60000000    15.93300000
   H     -4.72000000    37.52000000    14.68300000
   H     -4.22000000    35.91000000    14.26300000
   H     -5.93000000    36.51000000    13.80300000
   N     -6.08000000    33.43000000    16.35300000
   C     -6.45000000    32.08000000    15.98300000
   C     -6.82000000    31.16000000    17.14300000
   O     -7.34000000    30.09000000    16.85300000
   C     -5.35000000    31.41000000    15.17300000
   C     -3.94000000    31.52000000    15.73300000
   O     -3.77000000    30.99000000    16.84300000
   O     -3.12000000    32.25000000    15.13300000
   H     -5.25000000    33.52000000    16.93300000
   H     -7.31000000    32.08000000    15.31300000
   H     -5.27000000    31.74000000    14.14300000
   H     -5.53000000    30.34000000    15.01300000
   N     -6.58000000    31.54000000    18.40300000
   C     -6.64000000    30.65000000    19.54300000
   C     -5.74000000    29.42000000    19.51300000
   O     -6.06000000    28.52000000    20.29300000
   H     -6.03000000    32.39000000    18.46300000
   H     -7.68000000    30.33000000    19.62300000
   H     -6.39000000    31.23000000    20.43300000
   N     -4.67000000    29.30000000    18.73300000
   C     -3.78000000    28.16000000    18.77300000
   C     -3.00000000    28.04000000    20.07300000
   O     -2.47000000    26.99000000    20.43300000
   C     -2.92000000    28.09000000    17.51300000
   C     -1.72000000    29.02000000    17.35300000
   N     -0.88000000    28.84000000    16.33300000
   O     -1.56000000    30.02000000    18.04300000
   H     -4.53000000    30.09000000    18.13300000
   H     -4.37000000    27.24000000    18.75300000
   H     -3.58000000    28.37000000    16.68300000
   H     -2.71000000    27.06000000    17.22300000
   H     -0.76000000    27.98000000    15.81300000
   H     -0.25000000    29.60000000    16.16300000
   N     -3.00000000    29.08000000    20.92300000
   C     -2.45000000    29.05000000    22.26300000
   C     -0.93000000    29.18000000    22.30300000
   O     -0.40000000    28.84000000    23.36300000
   H     -3.27000000    29.97000000    20.53300000
   H     -2.79000000    28.17000000    22.80300000
   H     -2.85000000    29.91000000    22.78300000
   N     -0.37000000    29.76000000    21.24300000
   C      1.03000000    30.10000000    21.05300000
   C      1.10000000    31.38000000    20.24300000
   O      0.17000000    31.75000000    19.54300000
   C      1.72000000    29.01000000    20.24300000
   C      1.84000000    27.77000000    21.12300000
   O      0.97000000    28.69000000    19.09300000
   H     -0.95000000    30.21000000    20.55300000
   H      1.48000000    30.21000000    22.04300000
   H      2.70000000    29.38000000    19.93300000
   H      0.39000000    29.42000000    18.87300000
   H      2.51000000    27.03000000    20.68300000
   H      2.22000000    28.16000000    22.07300000
   H      0.89000000    27.25000000    21.22300000
   N      2.15000000    32.19000000    20.44300000
   C      2.45000000    33.28000000    19.54300000
   C      2.99000000    32.70000000    18.24300000
   O      3.85000000    31.83000000    18.24300000
   C      3.40000000    34.25000000    20.24300000
   C      2.59000000    35.26000000    21.04300000
   C      4.45000000    34.90000000    19.34300000
   C      3.42000000    36.05000000    22.04300000
   H      2.82000000    32.03000000    21.18300000
   H      1.50000000    33.76000000    19.32300000
   H      4.02000000    33.67000000    20.93300000
   H      1.75000000    34.79000000    21.56300000
   H      2.18000000    36.04000000    20.39300000
   H      5.09000000    34.13000000    18.90300000
   H      4.01000000    35.35000000    18.46300000
   H      5.10000000    35.48000000    20.00300000
   H      3.91000000    36.84000000    21.47300000
   H      2.72000000    36.46000000    22.77300000
   H      4.20000000    35.46000000    22.51300000
   N      2.43000000    33.15000000    17.11300000
   C      2.99000000    32.97000000    15.79300000
   C      3.85000000    34.14000000    15.32300000
   O      3.94000000    35.18000000    15.97300000
   C      1.79000000    32.80000000    14.86300000
   C      0.70000000    31.82000000    15.26300000
   O     -0.03000000    32.18000000    16.21300000
   O      0.60000000    30.69000000    14.74300000
   H      1.53000000    33.62000000    17.19300000
   H      3.71000000    32.16000000    15.76300000
   H      2.12000000    32.46000000    13.88300000
   H      1.28000000    33.76000000    14.70300000
   N      4.56000000    34.04000000    14.19300000
   C      5.42000000    35.11000000    13.72300000
   C      4.63000000    36.34000000    13.30300000
   O      4.97000000    37.39000000    13.84300000
   C      6.32000000    34.48000000    12.66300000
   C      7.35000000    35.44000000    12.11300000
   C      7.23000000    36.12000000    10.89300000
   C      8.54000000    35.60000000    12.82300000
   C      8.28000000    36.96000000    10.49300000
   C      9.58000000    36.43000000    12.39300000
   C      9.43000000    37.23000000    11.25300000
   H      4.49000000    33.22000000    13.60300000
   H      6.14000000    35.33000000    14.50300000
   H      5.66000000    34.22000000    11.83300000
   H      6.83000000    33.61000000    13.08300000
   H      6.41000000    35.93000000    10.22300000
   H      8.65000000    35.06000000    13.75300000
   H      8.26000000    37.51000000     9.56300000
   H     10.46000000    36.53000000    13.01300000
   H     10.17000000    37.95000000    10.93300000
   N      3.48000000    36.20000000    12.63300000
   C      2.54000000    37.28000000    12.45300000
   C      2.10000000    38.06000000    13.69300000
   O      1.41000000    39.06000000    13.55300000
   C      1.28000000    36.68000000    11.82300000
   C      1.95000000    35.66000000    10.90300000
   C      3.09000000    35.12000000    11.75300000
   H      3.02000000    38.02000000    11.80300000
   H      0.64000000    36.18000000    12.54300000
   H      0.69000000    37.39000000    11.23300000
   H      1.26000000    34.87000000    10.63300000
   H      2.28000000    36.10000000     9.96300000
   H      2.67000000    34.33000000    12.38300000
   H      3.87000000    34.81000000    11.06300000
   N      2.40000000    37.65000000    14.93300000
   C      1.88000000    38.12000000    16.19300000
   C      3.04000000    38.64000000    17.02300000
   O      2.92000000    39.75000000    17.53300000
   C      1.12000000    37.00000000    16.89300000
   C      0.09000000    36.27000000    16.04300000
   C     -0.63000000    35.15000000    16.77300000
   O     -1.85000000    34.98000000    16.56300000
   O     -0.09000000    34.51000000    17.70300000
   H      2.85000000    36.76000000    15.03300000
   H      1.16000000    38.93000000    16.08300000
   H      0.67000000    37.27000000    17.85300000
   H      1.81000000    36.20000000    17.17300000
   H      0.44000000    35.87000000    15.09300000
   H     -0.69000000    36.94000000    15.68300000
   N      4.20000000    37.97000000    17.01300000
   C      5.55000000    38.35000000    17.37300000
   H      6.18700000    38.30500000    16.49000000
   H      5.54900000    39.36600000    17.76800000
   H      5.93100000    37.66500000    18.13000000
   H      4.18000000    37.05000000    16.60300000
  Ca     -1.92700000    32.60000000    17.94000000
   O     -1.44700000    34.32000000    19.92000000
   H     -1.58700000    34.92000000    20.66000000
   H     -0.71700000    34.70000000    19.45000000
   O     -2.51700000    31.80000000    20.51000000
   H     -1.87700000    32.39000000    20.90000000
   H     -3.29700000    31.89000000    21.06000000

Ca 1.00



