%chk=loop2.holoCaM-CaMKII.run65.water2.chk
%nprocshared=20
%mem=10GB
%nosave
#b3lyp/svp scf=(tight,noincore,xqc) Test 
#IOP(5/87=12) Density=Current Pop=(MK,readradii) iop(6/33=2) iop(6/42=6)

loop2.holoCaM-CaMKII.run65.water2 

   -2  1 
   C     27.26000000    50.29000000   119.44100000
   C     27.55000000    51.50000000   120.33100000
   O     28.62000000    52.09000000   120.41100000
   H     26.40300000    50.50600000   118.80300000
   H     28.13000000    50.07800000   118.82000000
   H     27.03900000    49.42400000   120.06500000
   N     26.57000000    51.88000000   121.15100000
   C     26.75000000    52.94000000   122.13100000
   C     27.69000000    52.61000000   123.28100000
   O     27.59000000    51.56000000   123.90100000
   C     25.38000000    53.41000000   122.63100000
   C     25.47000000    54.57000000   123.60100000
   O     26.19000000    55.55000000   123.31100000
   O     24.85000000    54.40000000   124.67100000
   H     25.75000000    51.31000000   121.30100000
   H     27.32000000    53.74000000   121.66100000
   H     24.88000000    52.51000000   123.00100000
   H     24.70000000    53.74000000   121.84100000
   N     28.55000000    53.58000000   123.58100000
   C     29.42000000    53.62000000   124.74100000
   C     29.34000000    54.79000000   125.70100000
   O     29.97000000    54.74000000   126.76100000
   C     30.85000000    53.55000000   124.19100000
   H     28.53000000    54.38000000   122.97100000
   H     29.24000000    52.81000000   125.45100000
   H     30.84000000    52.74000000   123.46100000
   H     31.20000000    54.53000000   123.89100000
   H     31.40000000    53.14000000   125.04100000
   N     28.51000000    55.77000000   125.34100000
   C     28.35000000    57.04000000   126.01100000
   C     26.93000000    57.53000000   126.29100000
   O     26.82000000    58.51000000   127.03100000
   C     29.09000000    58.14000000   125.25100000
   C     28.60000000    58.27000000   123.81100000
   O     27.39000000    58.35000000   123.53100000
   O     29.46000000    58.21000000   122.90100000
   H     28.10000000    55.63000000   124.43100000
   H     28.80000000    56.96000000   127.00100000
   H     30.13000000    57.82000000   125.23100000
   H     29.11000000    59.13000000   125.69100000
   N     25.88000000    56.90000000   125.75100000
   C     24.50000000    57.25000000   125.99100000
   C     23.98000000    58.46000000   125.21100000
   O     22.85000000    58.89000000   125.41100000
   H     26.06000000    56.16000000   125.10100000
   H     24.41000000    57.49000000   127.05100000
   H     23.89000000    56.37000000   125.75100000
   N     24.76000000    59.07000000   124.32100000
   C     24.41000000    60.36000000   123.76100000
   C     23.28000000    60.28000000   122.75100000
   O     22.92000000    61.27000000   122.11100000
   C     25.69000000    61.09000000   123.34100000
   C     26.26000000    60.64000000   122.00100000
   N     27.33000000    61.31000000   121.57100000
   O     25.77000000    59.66000000   121.45100000
   H     25.67000000    58.67000000   124.17100000
   H     24.05000000    60.93000000   124.62100000
   H     26.45000000    61.00000000   124.12100000
   H     25.45000000    62.15000000   123.28100000
   H     27.64000000    62.11000000   122.10100000
   H     27.85000000    61.05000000   120.75100000
   N     22.72000000    59.10000000   122.48100000
   C     21.64000000    58.88000000   121.55100000
   C     21.89000000    59.02000000   120.06100000
   O     21.01000000    58.80000000   119.22100000
   H     23.09000000    58.28000000   122.94100000
   H     20.81000000    59.57000000   121.73100000
   H     21.27000000    57.87000000   121.76100000
   N     23.16000000    59.04000000   119.64100000
   C     23.68000000    58.98000000   118.29100000
   C     24.90000000    58.07000000   118.17100000
   O     25.61000000    57.82000000   119.14100000
   C     24.14000000    60.34000000   117.79100000
   C     23.06000000    61.34000000   117.37100000
   O     24.80000000    60.95000000   118.87100000
   H     23.92000000    59.08000000   120.30100000
   H     22.94000000    58.49000000   117.66100000
   H     24.86000000    60.15000000   117.00100000
   H     25.47000000    60.38000000   119.26100000
   H     22.54000000    60.91000000   116.51100000
   H     22.39000000    61.45000000   118.22100000
   H     23.55000000    62.27000000   117.08100000
   N     25.17000000    57.55000000   116.97100000
   C     26.37000000    56.80000000   116.67100000
   C     27.47000000    57.83000000   116.50100000
   O     27.36000000    58.60000000   115.54100000
   C     26.17000000    55.89000000   115.46100000
   C     25.27000000    54.68000000   115.69100000
   C     27.56000000    55.42000000   115.03100000
   C     24.56000000    54.15000000   114.44100000
   H     24.43000000    57.73000000   116.30100000
   H     26.54000000    56.24000000   117.59100000
   H     25.72000000    56.47000000   114.65100000
   H     24.50000000    54.80000000   116.45100000
   H     25.87000000    53.83000000   116.00100000
   H     28.25000000    56.18000000   114.67100000
   H     28.08000000    54.99000000   115.88100000
   H     27.48000000    54.72000000   114.19100000
   H     24.04000000    55.01000000   114.01100000
   H     25.37000000    53.81000000   113.80100000
   H     23.84000000    53.36000000   114.62100000
   N     28.60000000    57.75000000   117.20100000
   C     29.80000000    58.55000000   116.99100000
   C     30.77000000    57.73000000   116.15100000
   O     30.63000000    56.53000000   115.90100000
   C     30.26000000    58.92000000   118.40100000
   C     29.23000000    59.55000000   119.32100000
   O     28.54000000    58.76000000   120.00100000
   O     29.05000000    60.79000000   119.40100000
   H     28.71000000    56.98000000   117.84100000
   H     29.55000000    59.45000000   116.43100000
   H     31.05000000    59.66000000   118.32100000
   H     30.66000000    58.05000000   118.93100000
   N     31.80000000    58.38000000   115.60100000
   C     32.76000000    57.69000000   114.77100000
   C     33.50000000    56.52000000   115.41100000
   O     33.53000000    55.50000000   114.74100000
   C     33.74000000    58.66000000   114.11100000
   C     34.79000000    58.07000000   113.20100000
   C     36.11000000    57.94000000   113.64100000
   C     34.38000000    57.51000000   111.99100000
   C     37.04000000    57.29000000   112.81100000
   C     35.29000000    56.74000000   111.24100000
   C     36.63000000    56.69000000   111.62100000
   H     31.91000000    59.38000000   115.67100000
   H     32.16000000    57.23000000   113.99100000
   H     34.22000000    59.29000000   114.86100000
   H     33.10000000    59.26000000   113.47100000
   H     36.46000000    58.28000000   114.60100000
   H     33.36000000    57.54000000   111.64100000
   H     38.09000000    57.18000000   113.07100000
   H     35.10000000    56.34000000   110.25100000
   H     37.34000000    56.05000000   111.11100000
   N     34.11000000    56.66000000   116.59100000
   C     34.72000000    55.50000000   117.23100000
   C     33.70000000    54.41000000   117.50100000
   O     34.08000000    53.25000000   117.66100000
   C     35.31000000    56.10000000   118.50100000
   C     34.48000000    57.35000000   118.79100000
   C     34.24000000    57.87000000   117.38100000
   H     35.53000000    55.04000000   116.66100000
   H     35.25000000    55.42000000   119.35100000
   H     36.36000000    56.36000000   118.35100000
   H     33.57000000    57.00000000   119.27100000
   H     35.01000000    58.00000000   119.49100000
   H     33.45000000    58.61000000   117.37100000
   H     35.16000000    58.37000000   117.07100000
   N     32.38000000    54.58000000   117.50100000
   C     31.45000000    53.47000000   117.55100000
   C     31.09000000    52.93000000   116.18100000
   O     31.03000000    51.71000000   116.02100000
   C     30.20000000    54.01000000   118.26100000
   C     30.45000000    54.55000000   119.66100000
   C     29.15000000    55.12000000   120.21100000
   O     29.05000000    55.38000000   121.43100000
   O     28.26000000    55.57000000   119.46100000
   H     31.98000000    55.49000000   117.33100000
   H     31.86000000    52.59000000   118.03100000
   H     29.46000000    53.22000000   118.38100000
   H     29.69000000    54.75000000   117.64100000
   H     31.21000000    55.32000000   119.60100000
   H     30.72000000    53.66000000   120.23100000
   N     31.05000000    53.68000000   115.07100000
   C     30.81000000    53.15000000   113.75100000
   H     30.03900000    53.74100000   113.25700000
   H     31.73000000    53.19400000   113.16800000
   H     30.47800000    52.11500000   113.82900000
   H     31.08000000    54.68000000   115.19100000
  Ca     27.00000000    57.12000000   121.32100000
   O     25.85000000    54.99000000   119.76100000
   H     26.64000000    54.85000000   119.25100000
   H     25.35000000    54.18000000   119.66100000
   O     24.25000000    56.65000000   121.21100000
   H     24.40000000    56.12000000   120.43100000
   H     23.52000000    56.22000000   121.65100000

Ca 1.00



