%chk=loop1.holoCaM-CaMKII.run51.water2.chk
%nprocshared=20
%mem=10GB
%nosave
#b3lyp/svp scf=(tight,noincore,xqc) Test 
#IOP(5/87=12) Density=Current Pop=(MK,readradii) iop(6/33=2) iop(6/42=6)

loop1.holoCaM-CaMKII.run51.water2 

   0  1 
   C     14.08000000    56.66000000     4.46000000
   C     13.39000000    56.61000000     3.11000000
   O     12.57000000    55.72000000     2.87000000
   H     14.97600000    57.27600000     4.38700000
   H     13.40300000    57.09000000     5.19900000
   H     14.35800000    55.65100000     4.76400000
   N     13.61000000    57.63000000     2.28000000
   C     13.00000000    57.86000000     0.99000000
   C     13.89000000    57.12000000     0.00000000
   O     14.78000000    57.68000000    -0.63000000
   C     12.87000000    59.34000000     0.62000000
   C     12.47000000    59.61000000    -0.83000000
   O     12.94000000    60.64000000    -1.37000000
   O     11.63000000    58.85000000    -1.35000000
   H     14.27000000    58.36000000     2.54000000
   H     11.97000000    57.51000000     0.93000000
   H     13.81000000    59.88000000     0.76000000
   H     12.06000000    59.69000000     1.25000000
   N     13.67000000    55.81000000    -0.11000000
   C     14.48000000    54.80000000    -0.76000000
   C     14.42000000    54.91000000    -2.28000000
   O     15.30000000    54.40000000    -2.97000000
   C     14.12000000    53.36000000    -0.40000000
   C     14.34000000    53.04000000     1.08000000
   C     14.79000000    51.59000000     1.24000000
   C     14.96000000    51.23000000     2.72000000
   N     16.19000000    51.66000000     3.39000000
   H     12.87000000    55.56000000     0.45000000
   H     15.50000000    55.03000000    -0.46000000
   H     14.66000000    52.67000000    -1.05000000
   H     13.06000000    53.17000000    -0.55000000
   H     13.51000000    53.29000000     1.75000000
   H     15.22000000    53.62000000     1.37000000
   H     15.70000000    51.41000000     0.68000000
   H     14.06000000    50.90000000     0.82000000
   H     14.88000000    50.14000000     2.73000000
   H     14.05000000    51.61000000     3.18000000
   H     16.25000000    52.66000000     3.51000000
   H     16.29000000    51.23000000     4.30000000
   H     16.95000000    51.35000000     2.79000000
   N     13.61000000    55.82000000    -2.82000000
   C     13.31000000    56.09000000    -4.22000000
   C     13.51000000    57.55000000    -4.58000000
   O     13.43000000    57.84000000    -5.77000000
   C     11.87000000    55.68000000    -4.52000000
   C     10.71000000    55.88000000    -3.56000000
   O      9.57000000    55.46000000    -3.86000000
   O     10.76000000    56.36000000    -2.41000000
   H     13.00000000    56.36000000    -2.23000000
   H     13.98000000    55.52000000    -4.87000000
   H     11.90000000    54.61000000    -4.75000000
   H     11.61000000    56.15000000    -5.47000000
   N     13.72000000    58.49000000    -3.65000000
   C     14.26000000    59.82000000    -3.88000000
   C     13.35000000    60.85000000    -4.53000000
   O     13.83000000    61.70000000    -5.29000000
   H     13.87000000    58.12000000    -2.72000000
   H     15.17000000    59.82000000    -4.47000000
   H     14.65000000    60.28000000    -2.97000000
   N     12.04000000    60.70000000    -4.33000000
   C     11.07000000    61.74000000    -4.63000000
   C     11.06000000    62.97000000    -3.74000000
   O     10.53000000    64.04000000    -4.04000000
   C      9.65000000    61.19000000    -4.74000000
   C      9.30000000    60.37000000    -3.51000000
   O      8.85000000    59.21000000    -3.64000000
   O      9.54000000    60.77000000    -2.35000000
   H     11.67000000    60.01000000    -3.70000000
   H     11.30000000    62.05000000    -5.65000000
   H      9.63000000    60.54000000    -5.62000000
   H      8.91000000    61.96000000    -4.96000000
   N     11.74000000    62.88000000    -2.60000000
   C     11.85000000    63.94000000    -1.62000000
   C     10.78000000    64.01000000    -0.54000000
   O     10.64000000    65.04000000     0.12000000
   H     12.23000000    62.00000000    -2.46000000
   H     11.75000000    64.89000000    -2.15000000
   H     12.76000000    63.76000000    -1.04000000
   N     10.06000000    62.89000000    -0.43000000
   C      8.90000000    62.72000000     0.43000000
   C      8.97000000    61.39000000     1.16000000
   O      9.01000000    60.37000000     0.49000000
   C      7.59000000    62.84000000    -0.33000000
   C      6.93000000    64.22000000    -0.21000000
   O      7.76000000    62.65000000    -1.72000000
   H     10.32000000    62.10000000    -0.99000000
   H      8.93000000    63.53000000     1.16000000
   H      6.85000000    62.14000000     0.06000000
   H      8.42000000    61.96000000    -1.77000000
   H      7.04000000    64.62000000     0.80000000
   H      7.52000000    64.84000000    -0.88000000
   H      5.87000000    64.15000000    -0.46000000
   N      8.85000000    61.41000000     2.49000000
   C      8.77000000    60.20000000     3.28000000
   C      7.30000000    60.05000000     3.65000000
   O      6.83000000    60.97000000     4.31000000
   C      9.75000000    60.20000000     4.46000000
   C     11.19000000    60.44000000     4.01000000
   C      9.71000000    58.96000000     5.35000000
   C     12.06000000    60.92000000     5.17000000
   H      8.81000000    62.28000000     3.00000000
   H      9.15000000    59.35000000     2.72000000
   H      9.43000000    61.04000000     5.08000000
   H     11.27000000    61.21000000     3.25000000
   H     11.62000000    59.51000000     3.64000000
   H      8.68000000    58.73000000     5.63000000
   H     10.27000000    58.16000000     4.87000000
   H     10.28000000    59.25000000     6.23000000
   H     11.47000000    61.63000000     5.75000000
   H     12.40000000    60.17000000     5.89000000
   H     13.03000000    61.27000000     4.81000000
   N      6.59000000    59.00000000     3.23000000
   C      5.26000000    58.64000000     3.68000000
   C      5.27000000    57.68000000     4.86000000
   O      6.16000000    56.84000000     5.02000000
   C      4.39000000    58.20000000     2.51000000
   C      4.26000000    59.24000000     1.40000000
   O      5.07000000    57.09000000     1.95000000
   H      7.07000000    58.33000000     2.64000000
   H      4.71000000    59.49000000     4.09000000
   H      3.40000000    57.85000000     2.77000000
   H      5.98000000    57.40000000     1.92000000
   H      5.18000000    59.74000000     1.12000000
   H      3.61000000    58.90000000     0.59000000
   H      3.76000000    60.10000000     1.84000000
   N      4.18000000    57.58000000     5.63000000
   C      3.97000000    56.63000000     6.71000000
   C      4.44000000    55.20000000     6.53000000
   O      4.87000000    54.58000000     7.50000000
   C      2.50000000    56.54000000     7.12000000
   C      2.20000000    55.64000000     8.32000000
   O      2.18000000    57.84000000     7.54000000
   H      3.38000000    58.17000000     5.50000000
   H      4.52000000    57.01000000     7.57000000
   H      1.87000000    56.26000000     6.27000000
   H      1.27000000    58.08000000     7.33000000
   H      2.18000000    54.58000000     8.06000000
   H      2.94000000    55.78000000     9.10000000
   H      1.26000000    55.88000000     8.82000000
   N      4.33000000    54.65000000     5.31000000
   C      4.67000000    53.32000000     4.87000000
   C      6.18000000    53.13000000     4.77000000
   O      6.65000000    52.03000000     4.49000000
   C      3.92000000    52.94000000     3.60000000
   C      4.00000000    53.93000000     2.44000000
   C      3.50000000    53.48000000     1.08000000
   C      3.65000000    54.65000000     0.10000000
   N      2.75000000    54.49000000    -1.06000000
   H      4.10000000    55.29000000     4.57000000
   H      4.30000000    52.69000000     5.68000000
   H      2.88000000    52.78000000     3.90000000
   H      4.33000000    52.01000000     3.21000000
   H      5.03000000    54.28000000     2.35000000
   H      3.48000000    54.84000000     2.73000000
   H      2.42000000    53.36000000     1.23000000
   H      3.98000000    52.56000000     0.77000000
   H      4.70000000    54.70000000    -0.18000000
   H      3.38000000    55.55000000     0.65000000
   H      2.99000000    53.63000000    -1.54000000
   H      1.77000000    54.31000000    -0.89000000
   H      2.99000000    55.19000000    -1.75000000
   N      6.99000000    54.19000000     4.91000000
   C      8.42000000    54.18000000     4.68000000
   C      9.23000000    54.23000000     5.96000000
   O     10.41000000    53.88000000     6.03000000
   C      8.81000000    55.31000000     3.73000000
   C      8.25000000    55.17000000     2.32000000
   C      8.63000000    56.39000000     1.50000000
   O      7.92000000    57.42000000     1.44000000
   O      9.69000000    56.40000000     0.84000000
   H      6.64000000    55.09000000     5.19000000
   H      8.70000000    53.27000000     4.14000000
   H      9.90000000    55.39000000     3.64000000
   H      8.45000000    56.27000000     4.09000000
   H      7.17000000    55.06000000     2.39000000
   H      8.73000000    54.31000000     1.83000000
   N      8.52000000    54.66000000     7.01000000
   C      9.07000000    54.65000000     8.35000000
   H      9.95600000    55.28300000     8.38300000
   H      8.32700000    55.02900000     9.05100000
   H      9.34200000    53.63100000     8.62400000
   H      7.55000000    54.93000000     6.92000000
  Ca      9.19000000    58.15000000    -1.10800000
   O      6.59000000    58.96000000    -1.07800000
   H      6.51000000    59.17000000    -2.00800000
   H      5.79000000    58.47000000    -0.87800000
   O      7.92000000    55.95000000    -1.95800000
   H      8.57000000    55.60000000    -2.56800000
   H      7.09000000    55.59000000    -2.24800000

Ca 1.00



