%chk=loop1.holoCaM.run44.water2.chk
%nprocshared=20
%mem=10GB
%nosave
#b3lyp/svp scf=(tight,noincore,xqc) Test 
#IOP(5/87=12) Density=Current Pop=(MK,readradii) iop(6/33=2) iop(6/42=6)

loop1.holoCaM.run44.water2 

   0  1 
   C     61.66000000    81.96000000    17.84000000
   C     61.03000000    82.18000000    19.20000000
   O     59.90000000    81.78000000    19.46000000
   H     62.67400000    81.58100000    17.96700000
   H     61.07000000    81.23600000    17.27800000
   H     61.69100000    82.90400000    17.29600000
   N     61.76000000    82.85000000    20.10000000
   C     61.31000000    83.31000000    21.40000000
   C     60.53000000    84.61000000    21.31000000
   O     61.12000000    85.69000000    21.27000000
   C     62.48000000    83.35000000    22.37000000
   C     62.21000000    84.04000000    23.70000000
   O     63.10000000    84.77000000    24.19000000
   O     61.14000000    83.80000000    24.31000000
   H     62.64000000    83.23000000    19.77000000
   H     60.67000000    82.56000000    21.85000000
   H     63.33000000    83.81000000    21.85000000
   H     62.71000000    82.30000000    22.58000000
   N     59.23000000    84.46000000    21.04000000
   C     58.34000000    85.51000000    20.57000000
   C     58.02000000    86.49000000    21.69000000
   O     57.92000000    87.68000000    21.42000000
   C     57.16000000    84.95000000    19.79000000
   C     57.49000000    84.51000000    18.36000000
   C     56.25000000    83.88000000    17.75000000
   C     56.60000000    83.21000000    16.42000000
   N     55.48000000    82.95000000    15.51000000
   H     58.86000000    83.53000000    21.14000000
   H     58.91000000    86.09000000    19.85000000
   H     56.34000000    85.66000000    19.84000000
   H     56.73000000    84.11000000    20.33000000
   H     58.33000000    83.81000000    18.37000000
   H     57.82000000    85.38000000    17.80000000
   H     55.43000000    84.58000000    17.60000000
   H     55.82000000    83.06000000    18.33000000
   H     57.17000000    82.29000000    16.60000000
   H     57.23000000    83.88000000    15.83000000
   H     54.76000000    83.66000000    15.57000000
   H     55.75000000    82.80000000    14.55000000
   H     54.99000000    82.14000000    15.87000000
   N     57.91000000    86.02000000    22.94000000
   C     57.57000000    86.95000000    23.99000000
   C     58.77000000    87.48000000    24.76000000
   O     58.70000000    88.33000000    25.65000000
   C     56.62000000    86.33000000    25.02000000
   C     56.89000000    84.89000000    25.45000000
   O     56.09000000    84.35000000    26.23000000
   O     57.92000000    84.28000000    25.09000000
   H     57.97000000    85.04000000    23.16000000
   H     57.09000000    87.84000000    23.58000000
   H     55.66000000    86.32000000    24.51000000
   H     56.40000000    87.02000000    25.83000000
   N     59.97000000    86.98000000    24.44000000
   C     61.21000000    87.50000000    24.95000000
   C     61.60000000    87.18000000    26.39000000
   O     62.33000000    87.98000000    26.97000000
   H     59.97000000    86.24000000    23.75000000
   H     61.18000000    88.59000000    24.97000000
   H     61.98000000    87.11000000    24.29000000
   N     61.15000000    86.03000000    26.90000000
   C     61.59000000    85.54000000    28.19000000
   C     62.98000000    84.91000000    28.17000000
   O     63.44000000    84.54000000    29.24000000
   C     60.48000000    84.68000000    28.79000000
   C     60.32000000    83.39000000    27.99000000
   O     59.17000000    82.90000000    27.95000000
   O     61.19000000    82.90000000    27.25000000
   H     60.67000000    85.43000000    26.26000000
   H     61.64000000    86.48000000    28.75000000
   H     59.56000000    85.26000000    28.82000000
   H     60.71000000    84.50000000    29.84000000
   N     63.65000000    84.76000000    27.03000000
   C     64.95000000    84.11000000    26.98000000
   C     64.90000000    82.60000000    27.16000000
   O     65.87000000    81.99000000    27.60000000
   H     63.25000000    85.06000000    26.15000000
   H     65.55000000    84.56000000    27.77000000
   H     65.52000000    84.46000000    26.12000000
   N     63.77000000    81.98000000    26.78000000
   C     63.47000000    80.57000000    26.71000000
   C     62.56000000    80.24000000    25.53000000
   O     61.78000000    81.05000000    25.04000000
   C     62.96000000    79.93000000    28.00000000
   C     63.64000000    80.39000000    29.29000000
   O     61.59000000    80.23000000    28.16000000
   H     63.03000000    82.56000000    26.41000000
   H     64.45000000    80.14000000    26.53000000
   H     63.02000000    78.85000000    27.96000000
   H     61.58000000    81.15000000    27.90000000
   H     63.35000000    79.92000000    30.23000000
   H     64.71000000    80.19000000    29.23000000
   H     63.36000000    81.41000000    29.57000000
   N     62.60000000    79.01000000    25.02000000
   C     61.76000000    78.40000000    24.00000000
   C     60.97000000    77.23000000    24.57000000
   O     61.51000000    76.29000000    25.15000000
   C     62.60000000    78.10000000    22.76000000
   C     63.08000000    79.40000000    22.14000000
   C     61.78000000    77.30000000    21.76000000
   C     63.97000000    79.11000000    20.93000000
   H     63.26000000    78.36000000    25.42000000
   H     61.05000000    79.15000000    23.64000000
   H     63.50000000    77.57000000    23.09000000
   H     63.66000000    80.02000000    22.82000000
   H     62.25000000    80.04000000    21.86000000
   H     61.37000000    76.41000000    22.24000000
   H     60.91000000    77.86000000    21.40000000
   H     62.41000000    76.97000000    20.93000000
   H     64.61000000    78.27000000    21.18000000
   H     63.44000000    78.88000000    20.01000000
   H     64.66000000    79.92000000    20.69000000
   N     59.65000000    77.30000000    24.43000000
   C     58.76000000    76.27000000    24.92000000
   C     58.08000000    75.46000000    23.84000000
   O     58.49000000    75.57000000    22.68000000
   C     57.83000000    76.92000000    25.95000000
   C     56.72000000    77.82000000    25.42000000
   O     57.18000000    75.85000000    26.60000000
   H     59.27000000    78.14000000    24.01000000
   H     59.28000000    75.49000000    25.48000000
   H     58.45000000    77.37000000    26.73000000
   H     56.84000000    76.32000000    27.37000000
   H     55.99000000    77.19000000    24.90000000
   H     56.28000000    78.29000000    26.30000000
   H     57.06000000    78.65000000    24.80000000
   N     57.08000000    74.62000000    24.15000000
   C     56.14000000    73.96000000    23.27000000
   C     55.61000000    74.82000000    22.13000000
   O     55.78000000    74.54000000    20.95000000
   C     54.95000000    73.28000000    23.93000000
   C     55.20000000    72.14000000    24.92000000
   O     54.21000000    74.20000000    24.71000000
   H     56.91000000    74.57000000    25.14000000
   H     56.76000000    73.15000000    22.87000000
   H     54.32000000    72.80000000    23.18000000
   H     53.35000000    73.81000000    24.54000000
   H     55.61000000    71.29000000    24.38000000
   H     55.96000000    72.35000000    25.67000000
   H     54.30000000    71.82000000    25.45000000
   N     55.01000000    75.97000000    22.46000000
   C     54.28000000    76.86000000    21.58000000
   C     55.19000000    77.60000000    20.61000000
   O     54.64000000    78.20000000    19.70000000
   C     53.28000000    77.75000000    22.32000000
   C     53.97000000    78.95000000    22.96000000
   C     53.00000000    79.84000000    23.73000000
   C     53.70000000    81.12000000    24.18000000
   N     53.13000000    81.65000000    25.43000000
   H     54.80000000    76.08000000    23.44000000
   H     53.75000000    76.28000000    20.82000000
   H     52.62000000    77.27000000    23.05000000
   H     52.57000000    78.12000000    21.57000000
   H     54.36000000    79.55000000    22.14000000
   H     54.78000000    78.64000000    23.61000000
   H     52.77000000    79.28000000    24.64000000
   H     52.05000000    80.01000000    23.22000000
   H     53.71000000    81.95000000    23.47000000
   H     54.78000000    81.04000000    24.23000000
   H     53.43000000    82.60000000    25.61000000
   H     52.13000000    81.50000000    25.41000000
   H     53.39000000    81.09000000    26.23000000
   N     56.51000000    77.48000000    20.79000000
   C     57.48000000    78.14000000    19.95000000
   C     58.38000000    77.16000000    19.19000000
   O     58.61000000    77.31000000    18.00000000
   C     58.35000000    79.02000000    20.83000000
   C     57.58000000    80.12000000    21.57000000
   C     58.42000000    80.74000000    22.68000000
   O     58.92000000    80.01000000    23.57000000
   O     58.41000000    81.98000000    22.84000000
   H     56.74000000    76.87000000    21.57000000
   H     57.02000000    78.74000000    19.16000000
   H     59.13000000    79.57000000    20.30000000
   H     58.82000000    78.45000000    21.63000000
   H     56.64000000    79.74000000    21.97000000
   H     57.40000000    80.89000000    20.82000000
   N     58.74000000    76.05000000    19.85000000
   C     59.64000000    75.07000000    19.28000000
   H     60.58200000    75.08000000    19.82900000
   H     59.19000000    74.07900000    19.34900000
   H     59.82700000    75.31300000    18.23400000
   H     58.37000000    75.99000000    20.78000000
  Ca     59.36000000    82.15000000    25.27000000
   O     59.23000000    79.75000000    26.75000000
   H     58.44000000    79.50000000    27.23000000
   H     59.93000000    79.75000000    27.41000000
   O     56.78000000    81.55000000    25.94000000
   H     56.54000000    82.47000000    25.90000000
   H     56.73000000    81.32000000    26.87000000

Ca 1.00



