%chk=loop3.apoCaM-CA-Ng.Init31.run76.water5.chk
%nprocshared=20
%mem=10GB
%nosave
#b3lyp/svp scf=(tight,noincore,xqc) Test 
#IOP(5/87=12) Density=Current Pop=(MK,readradii) iop(6/33=2) iop(6/42=6)

loop3.apoCaM-CA-Ng.Init31.run76.water5 

   0  1 
   C     98.62000000    52.05000000    26.35000000
   C     97.37000000    51.57000000    25.62000000
   O     96.45000000    51.03000000    26.23000000
   H     99.39800000    52.28300000    25.62300000
   H     98.38400000    52.94400000    26.92700000
   H     98.97300000    51.26700000    27.02100000
   N     97.35000000    51.75000000    24.30000000
   C     96.42000000    51.09000000    23.41000000
   C     97.02000000    49.80000000    22.88000000
   O     98.23000000    49.58000000    23.00000000
   C     95.89000000    51.97000000    22.28000000
   C     96.94000000    52.67000000    21.43000000
   O     97.44000000    53.73000000    21.86000000
   O     97.28000000    52.04000000    20.41000000
   H     98.18000000    52.09000000    23.84000000
   H     95.52000000    50.85000000    23.97000000
   H     95.27000000    52.76000000    22.71000000
   H     95.17000000    51.41000000    21.69000000
   N     96.17000000    48.92000000    22.34000000
   C     96.63000000    47.68000000    21.75000000
   C     97.29000000    46.70000000    22.71000000
   O     98.25000000    46.03000000    22.32000000
   C     95.45000000    47.11000000    20.97000000
   C     95.87000000    45.79000000    20.34000000
   C     94.79000000    45.17000000    19.46000000
   C     93.68000000    44.50000000    20.28000000
   N     92.44000000    44.50000000    19.49000000
   H     95.19000000    49.12000000    22.23000000
   H     97.32000000    47.97000000    20.96000000
   H     95.17000000    47.85000000    20.22000000
   H     94.68000000    46.90000000    21.72000000
   H     96.12000000    45.05000000    21.10000000
   H     96.73000000    46.03000000    19.71000000
   H     95.27000000    44.42000000    18.84000000
   H     94.40000000    45.87000000    18.73000000
   H     93.53000000    45.06000000    21.20000000
   H     93.90000000    43.44000000    20.42000000
   H     91.66000000    44.41000000    20.13000000
   H     92.29000000    45.40000000    19.05000000
   H     92.52000000    43.87000000    18.71000000
   N     96.93000000    46.66000000    23.99000000
   C     97.41000000    45.62000000    24.88000000
   C     96.82000000    44.22000000    24.76000000
   O     96.05000000    43.81000000    25.62000000
   C     97.37000000    46.14000000    26.31000000
   C     96.04000000    46.66000000    26.85000000
   O     96.07000000    47.14000000    28.01000000
   O     94.96000000    46.58000000    26.23000000
   H     96.18000000    47.29000000    24.26000000
   H     98.45000000    45.42000000    24.64000000
   H     97.97000000    47.05000000    26.32000000
   H     97.76000000    45.39000000    26.99000000
   N     97.21000000    43.53000000    23.68000000
   C     96.80000000    42.17000000    23.43000000
   C     95.39000000    42.01000000    22.87000000
   O     94.68000000    43.00000000    22.74000000
   H     97.78000000    44.04000000    23.02000000
   H     96.84000000    41.68000000    24.40000000
   H     97.55000000    41.62000000    22.85000000
   N     95.02000000    40.81000000    22.42000000
   C     95.65000000    39.51000000    22.59000000
   C     95.14000000    38.78000000    23.82000000
   O     94.10000000    39.19000000    24.34000000
   C     95.38000000    38.77000000    21.28000000
   C     96.15000000    39.33000000    20.09000000
   N     95.60000000    40.27000000    19.32000000
   O     97.30000000    39.01000000    19.82000000
   H     94.24000000    40.95000000    21.80000000
   H     96.74000000    39.52000000    22.67000000
   H     94.31000000    38.77000000    21.05000000
   H     95.74000000    37.75000000    21.39000000
   H     94.66000000    40.56000000    19.52000000
   H     96.13000000    40.52000000    18.50000000
   N     95.73000000    37.81000000    24.51000000
   C     96.98000000    37.19000000    24.12000000
   C     98.23000000    37.88000000    24.67000000
   O     98.52000000    39.04000000    24.41000000
   H     95.28000000    37.46000000    25.34000000
   H     96.99000000    37.18000000    23.04000000
   H     96.87000000    36.19000000    24.55000000
   N     98.99000000    37.12000000    25.46000000
   C    100.01000000    37.67000000    26.32000000
   C    101.29000000    36.86000000    26.16000000
   O    101.56000000    35.90000000    26.88000000
   C     99.48000000    37.77000000    27.75000000
   C     98.08000000    38.33000000    27.83000000
   C     97.83000000    39.70000000    27.65000000
   C     96.95000000    37.52000000    27.99000000
   C     96.53000000    40.19000000    27.48000000
   C     95.63000000    37.99000000    27.90000000
   C     95.41000000    39.34000000    27.57000000
   O     94.16000000    39.82000000    27.34000000
   H     98.49000000    36.29000000    25.75000000
   H    100.19000000    38.69000000    25.98000000
   H    100.15000000    38.44000000    28.29000000
   H     99.49000000    36.78000000    28.20000000
   H     98.73000000    40.30000000    27.64000000
   H     97.04000000    36.46000000    28.15000000
   H     96.29000000    41.22000000    27.26000000
   H     94.76000000    37.35000000    27.93000000
   H     93.50000000    39.13000000    27.34000000
   N    102.12000000    37.35000000    25.24000000
   C    103.17000000    36.55000000    24.66000000
   C    104.54000000    37.23000000    24.70000000
   O    105.57000000    36.59000000    24.86000000
   C    102.82000000    35.94000000    23.31000000
   C    101.81000000    34.80000000    23.46000000
   C    102.34000000    36.96000000    22.28000000
   C    102.34000000    33.49000000    24.02000000
   H    101.90000000    38.20000000    24.74000000
   H    103.27000000    35.65000000    25.26000000
   H    103.73000000    35.47000000    22.91000000
   H    101.51000000    34.49000000    22.46000000
   H    101.01000000    35.16000000    24.10000000
   H    102.96000000    37.85000000    22.21000000
   H    102.37000000    36.54000000    21.27000000
   H    101.29000000    37.17000000    22.52000000
   H    102.60000000    33.57000000    25.08000000
   H    101.62000000    32.67000000    23.94000000
   H    103.31000000    33.20000000    23.60000000
   N    104.58000000    38.56000000    24.77000000
   C    105.81000000    39.34000000    24.80000000
   C    105.93000000    40.57000000    23.92000000
   O    107.02000000    41.07000000    23.67000000
   C    106.08000000    39.66000000    26.26000000
   O    105.47000000    40.78000000    26.85000000
   H    103.69000000    39.03000000    24.82000000
   H    106.64000000    38.76000000    24.39000000
   H    107.15000000    39.77000000    26.47000000
   H    105.89000000    38.79000000    26.90000000
   H    104.53000000    40.80000000    26.66000000
   N    104.84000000    41.05000000    23.30000000
   C    104.81000000    42.21000000    22.43000000
   C    104.47000000    43.46000000    23.22000000
   O    103.55000000    44.20000000    22.88000000
   C    103.87000000    41.93000000    21.26000000
   H    103.99000000    40.52000000    23.45000000
   H    105.81000000    42.21000000    22.00000000
   H    102.88000000    41.67000000    21.64000000
   H    103.78000000    42.83000000    20.66000000
   H    104.47000000    41.20000000    20.72000000
   N    105.25000000    43.65000000    24.28000000
   C    105.22000000    44.71000000    25.27000000
   C    103.87000000    45.01000000    25.91000000
   O    103.43000000    46.14000000    26.13000000
   C    105.89000000    45.96000000    24.70000000
   H    106.02000000    43.00000000    24.30000000
   H    105.90000000    44.30000000    26.02000000
   H    106.83000000    45.76000000    24.20000000
   H    105.18000000    46.53000000    24.09000000
   H    106.26000000    46.53000000    25.55000000
   N    103.01000000    44.00000000    26.02000000
   C    101.63000000    43.98000000    26.44000000
   C    101.51000000    43.51000000    27.88000000
   O    100.82000000    44.20000000    28.63000000
   C    100.76000000    43.17000000    25.48000000
   C    100.80000000    41.65000000    25.63000000
   C    102.12000000    40.95000000    25.36000000
   O    103.04000000    40.98000000    26.20000000
   O    102.29000000    40.21000000    24.36000000
   H    103.36000000    43.08000000    25.76000000
   H    101.21000000    44.98000000    26.37000000
   H    101.02000000    43.40000000    24.44000000
   H     99.73000000    43.49000000    25.63000000
   H    100.06000000    41.20000000    24.97000000
   H    100.49000000    41.38000000    26.64000000
   N    102.43000000    42.64000000    28.31000000
   C    102.63000000    42.20000000    29.67000000
   H    103.35100000    42.85400000    30.16100000
   H    101.68200000    42.23600000    30.20700000
   H    103.00900000    41.17800000    29.67000000
   H    103.02000000    42.19000000    27.62000000
  Ca     93.38000000    47.31000000    28.19000000
   O     92.28000000    47.77000000    25.72000000
   H     92.56000000    47.46000000    24.86000000
   H     91.47000000    48.24000000    25.55000000
   O     90.94000000    46.53000000    29.43000000
   H     90.73000000    45.78000000    29.98000000
   H     90.10000000    46.92000000    29.22000000
   O     92.56000000    45.07000000    26.92000000
   H     92.08000000    45.46000000    26.19000000
   H     92.67000000    44.15000000    26.66000000
   O     94.50000000    46.14000000    30.16000000
   H     95.41000000    46.18000000    30.46000000
   H     94.00000000    45.88000000    30.93000000
   O     94.63000000    49.74000000    27.56000000
   H     95.26000000    50.10000000    26.94000000
   H     93.80000000    50.15000000    27.33000000

Ca 1.00



