%chk=loop3.apoCaM-CA-Ng.Init293.run27.water5.chk
%nprocshared=20
%mem=10GB
%nosave
#b3lyp/svp scf=(tight,noincore,xqc) Test 
#IOP(5/87=12) Density=Current Pop=(MK,readradii) iop(6/33=2) iop(6/42=6)

loop3.apoCaM-CA-Ng.Init293.run27.water5 

   0  1 
   C     38.93000000    13.32000000    -3.85000000
   C     38.47000000    14.04000000    -5.12000000
   O     38.17000000    13.41000000    -6.13000000
   H     39.80800000    13.82400000    -3.44500000
   H     38.12900000    13.33700000    -3.11100000
   H     39.18300000    12.28700000    -4.08900000
   N     38.44000000    15.37000000    -5.18000000
   C     37.70000000    16.19000000    -6.12000000
   C     36.19000000    15.99000000    -6.01000000
   O     35.65000000    15.46000000    -5.04000000
   C     38.16000000    17.63000000    -5.99000000
   C     37.45000000    18.64000000    -6.89000000
   O     36.55000000    19.41000000    -6.49000000
   O     37.72000000    18.59000000    -8.11000000
   H     39.01000000    15.84000000    -4.49000000
   H     37.87000000    15.73000000    -7.09000000
   H     39.23000000    17.67000000    -6.21000000
   H     38.02000000    18.00000000    -4.98000000
   N     35.49000000    16.48000000    -7.03000000
   C     34.05000000    16.41000000    -7.16000000
   C     33.27000000    16.90000000    -5.95000000
   O     32.13000000    16.49000000    -5.72000000
   C     33.64000000    15.03000000    -7.67000000
   C     34.15000000    14.71000000    -9.07000000
   C     33.29000000    15.21000000   -10.22000000
   C     33.89000000    14.73000000   -11.54000000
   N     32.82000000    14.55000000   -12.53000000
   H     35.99000000    17.07000000    -7.68000000
   H     33.62000000    17.09000000    -7.90000000
   H     32.56000000    15.01000000    -7.79000000
   H     33.91000000    14.29000000    -6.91000000
   H     34.24000000    13.62000000    -9.16000000
   H     35.14000000    15.16000000    -9.15000000
   H     33.22000000    16.29000000   -10.29000000
   H     32.32000000    14.78000000    -9.97000000
   H     34.28000000    13.73000000   -11.39000000
   H     34.65000000    15.46000000   -11.82000000
   H     32.28000000    15.41000000   -12.62000000
   H     33.24000000    14.39000000   -13.44000000
   H     32.21000000    13.80000000   -12.25000000
   N     33.85000000    17.83000000    -5.19000000
   C     33.26000000    18.56000000    -4.09000000
   C     33.85000000    19.94000000    -3.84000000
   O     34.81000000    20.12000000    -3.09000000
   C     33.32000000    17.72000000    -2.82000000
   C     32.30000000    18.18000000    -1.78000000
   O     31.70000000    19.27000000    -1.89000000
   O     32.13000000    17.51000000    -0.74000000
   H     34.75000000    18.17000000    -5.52000000
   H     32.21000000    18.74000000    -4.31000000
   H     34.34000000    17.73000000    -2.43000000
   H     32.95000000    16.74000000    -3.13000000
   N     33.28000000    21.01000000    -4.41000000
   C     33.61000000    22.40000000    -4.17000000
   C     32.98000000    22.96000000    -2.90000000
   O     31.79000000    22.71000000    -2.78000000
   H     32.44000000    20.85000000    -4.95000000
   H     33.24000000    23.13000000    -4.88000000
   H     34.70000000    22.45000000    -4.18000000
   N     33.69000000    23.69000000    -2.03000000
   C     33.22000000    24.25000000    -0.78000000
   C     33.74000000    25.66000000    -0.52000000
   O     33.71000000    26.11000000     0.62000000
   C     33.62000000    23.26000000     0.31000000
   C     32.91000000    21.92000000     0.15000000
   N     33.59000000    20.85000000    -0.25000000
   O     31.70000000    21.83000000     0.32000000
   H     34.67000000    23.78000000    -2.26000000
   H     32.13000000    24.31000000    -0.83000000
   H     33.22000000    23.66000000     1.24000000
   H     34.67000000    23.08000000     0.52000000
   H     34.58000000    20.96000000    -0.38000000
   H     33.12000000    19.96000000    -0.33000000
   N     34.29000000    26.38000000    -1.50000000
   C     34.79000000    27.73000000    -1.35000000
   C     36.07000000    27.67000000    -0.52000000
   O     36.89000000    26.76000000    -0.57000000
   H     34.57000000    25.97000000    -2.39000000
   H     33.97000000    28.24000000    -0.85000000
   H     35.04000000    28.19000000    -2.31000000
   N     36.33000000    28.68000000     0.31000000
   C     37.20000000    28.74000000     1.47000000
   C     36.87000000    27.70000000     2.53000000
   O     37.07000000    27.98000000     3.71000000
   C     38.67000000    28.90000000     1.10000000
   C     39.68000000    28.91000000     2.22000000
   C     40.05000000    30.16000000     2.73000000
   C     40.34000000    27.77000000     2.69000000
   C     41.08000000    30.30000000     3.66000000
   C     41.43000000    27.91000000     3.56000000
   C     41.79000000    29.16000000     4.10000000
   O     42.92000000    29.25000000     4.86000000
   H     35.60000000    29.38000000     0.34000000
   H     36.84000000    29.69000000     1.88000000
   H     38.72000000    29.91000000     0.71000000
   H     38.96000000    28.15000000     0.35000000
   H     39.45000000    31.02000000     2.45000000
   H     40.11000000    26.83000000     2.22000000
   H     41.35000000    31.31000000     3.93000000
   H     41.89000000    26.98000000     3.88000000
   H     43.36000000    28.43000000     5.10000000
   N     36.34000000    26.52000000     2.21000000
   C     35.85000000    25.52000000     3.13000000
   C     34.63000000    25.87000000     3.97000000
   O     33.56000000    25.26000000     3.87000000
   C     36.98000000    24.89000000     3.94000000
   C     37.95000000    24.14000000     3.03000000
   C     36.41000000    23.84000000     4.89000000
   C     39.26000000    23.75000000     3.71000000
   H     36.36000000    26.26000000     1.23000000
   H     35.41000000    24.76000000     2.48000000
   H     37.43000000    25.68000000     4.54000000
   H     38.24000000    24.94000000     2.35000000
   H     37.52000000    23.30000000     2.48000000
   H     37.09000000    23.43000000     5.64000000
   H     35.70000000    24.31000000     5.57000000
   H     35.74000000    23.11000000     4.44000000
   H     39.62000000    24.67000000     4.16000000
   H     39.12000000    22.97000000     4.46000000
   H     39.95000000    23.49000000     2.91000000
   N     34.70000000    26.94000000     4.76000000
   C     33.52000000    27.52000000     5.38000000
   C     32.71000000    26.66000000     6.34000000
   O     31.59000000    27.02000000     6.68000000
   C     34.07000000    28.72000000     6.14000000
   O     34.54000000    29.75000000     5.30000000
   H     35.58000000    27.43000000     4.72000000
   H     32.85000000    27.85000000     4.59000000
   H     34.92000000    28.46000000     6.77000000
   H     33.24000000    29.13000000     6.72000000
   H     35.20000000    30.12000000     5.88000000
   N     33.31000000    25.57000000     6.85000000
   C     32.68000000    24.46000000     7.52000000
   C     31.37000000    24.04000000     6.88000000
   O     30.32000000    23.79000000     7.47000000
   C     32.69000000    24.63000000     9.04000000
   H     34.25000000    25.39000000     6.52000000
   H     33.37000000    23.62000000     7.41000000
   H     33.72000000    24.63000000     9.39000000
   H     32.32000000    25.62000000     9.31000000
   H     32.14000000    23.85000000     9.57000000
   N     31.43000000    23.90000000     5.56000000
   C     30.26000000    23.60000000     4.77000000
   C     29.92000000    22.12000000     4.70000000
   O     30.75000000    21.25000000     4.45000000
   C     30.48000000    24.22000000     3.39000000
   H     32.33000000    24.08000000     5.12000000
   H     29.36000000    23.96000000     5.27000000
   H     29.66000000    23.85000000     2.78000000
   H     30.42000000    25.31000000     3.38000000
   H     31.47000000    23.96000000     3.01000000
   N     28.64000000    21.77000000     4.86000000
   C     28.00000000    20.48000000     4.74000000
   C     28.55000000    19.40000000     5.66000000
   O     29.16000000    18.45000000     5.18000000
   C     27.69000000    20.05000000     3.31000000
   C     27.13000000    21.12000000     2.38000000
   C     27.03000000    20.65000000     0.94000000
   O     27.97000000    21.00000000     0.19000000
   O     26.09000000    19.95000000     0.51000000
   H     28.08000000    22.57000000     5.13000000
   H     27.04000000    20.68000000     5.23000000
   H     27.11000000    19.13000000     3.20000000
   H     28.59000000    19.61000000     2.88000000
   H     27.76000000    22.01000000     2.47000000
   H     26.15000000    21.46000000     2.73000000
   N     28.64000000    19.65000000     6.97000000
   C     29.37000000    18.77000000     7.86000000
   H     30.28500000    19.26300000     8.18800000
   H     28.75300000    18.53600000     8.72800000
   H     29.62300000    17.84900000     7.33500000
   H     28.14000000    20.44000000     7.34000000
  Ca     29.76000000    21.04000000    -1.65600000
   O     30.23000000    18.86000000     0.40000000
   H     30.98000000    18.39000000     0.02000000
   H     30.57000000    19.20000000     1.23000000
   O     27.20000000    21.86000000    -2.29600000
   H     26.77000000    21.78000000    -1.43600000
   H     26.54000000    22.28000000    -2.84600000
   O     28.77000000    18.68000000    -2.47600000
   H     28.95000000    18.02000000    -3.15600000
   H     27.94000000    18.40000000    -2.09600000
   O     29.87000000    20.78000000    -4.34600000
   H     29.34000000    20.36000000    -5.02600000
   H     30.03000000    21.66000000    -4.67600000
   O     29.62000000    23.57000000    -1.21600000
   H     29.93000000    24.45000000    -1.42600000
   H     28.82000000    23.72000000    -0.71600000

Ca 1.00



