%chk=loop1.apoCaM-CA-Ng.Init295.run10.water6.chk
%nprocshared=20
%mem=10GB
%nosave
#b3lyp/svp scf=(tight,noincore,xqc) Test 
#IOP(5/87=12) Density=Current Pop=(MK,readradii) iop(6/33=2) iop(6/42=6)

loop1.apoCaM-CA-Ng.Init295.run10.water6 

   0  1 
   C     48.88000000    46.59000000    49.67000000
   C     48.62000000    45.88000000    48.34000000
   O     47.85000000    44.93000000    48.24000000
   H     49.65700000    47.34200000    49.53400000
   H     47.96400000    47.07300000    50.01000000
   H     49.20600000    45.86200000    50.41300000
   N     49.29000000    46.37000000    47.30000000
   C     49.51000000    45.70000000    46.03000000
   C     48.32000000    45.54000000    45.10000000
   O     48.36000000    45.17000000    43.93000000
   C     50.40000000    44.47000000    46.21000000
   C     51.35000000    44.21000000    45.05000000
   O     52.16000000    45.08000000    44.68000000
   O     51.45000000    43.07000000    44.55000000
   H     49.99000000    47.08000000    47.50000000
   H     50.06000000    46.42000000    45.42000000
   H     49.91000000    43.54000000    46.48000000
   H     51.01000000    44.56000000    47.11000000
   N     47.16000000    46.05000000    45.52000000
   C     45.88000000    45.98000000    44.84000000
   C     45.75000000    46.49000000    43.42000000
   O     44.71000000    46.23000000    42.81000000
   C     44.85000000    46.63000000    45.77000000
   C     44.60000000    45.90000000    47.08000000
   C     43.79000000    44.63000000    46.82000000
   C     43.47000000    43.91000000    48.13000000
   N     42.66000000    42.72000000    47.83000000
   H     47.26000000    46.51000000    46.41000000
   H     45.62000000    44.92000000    44.76000000
   H     43.93000000    46.77000000    45.21000000
   H     45.17000000    47.61000000    46.12000000
   H     43.99000000    46.54000000    47.72000000
   H     45.55000000    45.72000000    47.59000000
   H     44.44000000    43.90000000    46.33000000
   H     42.96000000    44.82000000    46.15000000
   H     42.89000000    44.60000000    48.75000000
   H     44.43000000    43.58000000    48.53000000
   H     42.16000000    42.24000000    48.57000000
   H     41.98000000    42.89000000    47.10000000
   H     43.24000000    42.01000000    47.42000000
   N     46.71000000    47.26000000    42.90000000
   C     46.91000000    47.71000000    41.54000000
   C     48.27000000    47.29000000    40.99000000
   O     48.25000000    46.97000000    39.80000000
   C     46.66000000    49.21000000    41.40000000
   C     46.67000000    49.72000000    39.96000000
   O     46.00000000    49.08000000    39.12000000
   O     47.34000000    50.75000000    39.75000000
   H     47.50000000    47.43000000    43.51000000
   H     46.12000000    47.23000000    40.96000000
   H     47.55000000    49.65000000    41.84000000
   H     45.73000000    49.51000000    41.88000000
   N     49.33000000    47.11000000    41.77000000
   C     50.52000000    46.35000000    41.46000000
   C     51.32000000    46.72000000    40.22000000
   O     52.02000000    45.91000000    39.63000000
   H     49.11000000    47.37000000    42.73000000
   H     50.14000000    45.37000000    41.20000000
   H     51.27000000    46.30000000    42.25000000
   N     51.12000000    48.00000000    39.89000000
   C     51.74000000    48.68000000    38.77000000
   C     52.47000000    49.93000000    39.23000000
   O     51.92000000    50.76000000    39.95000000
   C     50.75000000    49.19000000    37.73000000
   C     50.00000000    48.02000000    37.12000000
   O     48.76000000    48.15000000    37.17000000
   O     50.67000000    47.08000000    36.65000000
   H     50.34000000    48.42000000    40.39000000
   H     52.43000000    48.03000000    38.22000000
   H     51.20000000    49.70000000    36.88000000
   H     50.02000000    49.84000000    38.22000000
   N     53.65000000    50.21000000    38.68000000
   C     54.50000000    51.36000000    38.92000000
   C     55.32000000    51.40000000    40.20000000
   O     56.53000000    51.60000000    40.31000000
   H     54.05000000    49.54000000    38.04000000
   H     53.91000000    52.27000000    38.82000000
   H     55.09000000    51.35000000    38.00000000
   N     54.58000000    51.12000000    41.27000000
   C     55.19000000    50.89000000    42.56000000
   C     55.82000000    52.16000000    43.13000000
   O     55.70000000    53.28000000    42.65000000
   C     54.09000000    50.33000000    43.46000000
   C     52.98000000    51.34000000    43.68000000
   O     53.52000000    49.15000000    42.93000000
   H     53.67000000    50.73000000    41.05000000
   H     55.99000000    50.16000000    42.57000000
   H     54.50000000    50.08000000    44.44000000
   H     53.05000000    48.73000000    43.66000000
   H     52.19000000    50.93000000    44.30000000
   H     53.41000000    52.26000000    44.08000000
   H     52.50000000    51.53000000    42.72000000
   N     56.44000000    52.04000000    44.30000000
   C     57.12000000    53.11000000    45.02000000
   C     58.63000000    53.00000000    45.06000000
   O     59.29000000    53.92000000    45.54000000
   C     56.70000000    53.02000000    46.48000000
   C     56.96000000    51.65000000    47.10000000
   C     55.29000000    53.60000000    46.59000000
   C     56.79000000    51.63000000    48.61000000
   H     56.54000000    51.11000000    44.67000000
   H     56.93000000    54.13000000    44.68000000
   H     57.26000000    53.77000000    47.04000000
   H     57.99000000    51.34000000    46.92000000
   H     56.22000000    50.97000000    46.67000000
   H     54.65000000    53.08000000    45.87000000
   H     54.94000000    53.47000000    47.62000000
   H     55.33000000    54.64000000    46.30000000
   H     57.03000000    50.66000000    49.04000000
   H     57.45000000    52.30000000    49.16000000
   H     55.77000000    51.86000000    48.93000000
   N     59.20000000    51.92000000    44.51000000
   C     60.64000000    51.79000000    44.36000000
   C     61.06000000    50.45000000    44.95000000
   O     60.24000000    49.56000000    45.15000000
   C     61.06000000    51.96000000    42.90000000
   C     60.65000000    50.77000000    42.04000000
   O     60.47000000    53.06000000    42.25000000
   H     58.64000000    51.11000000    44.29000000
   H     61.07000000    52.56000000    45.00000000
   H     62.15000000    51.97000000    42.97000000
   H     60.91000000    53.89000000    42.44000000
   H     59.56000000    50.75000000    42.11000000
   H     60.92000000    50.89000000    40.99000000
   H     61.05000000    49.82000000    42.39000000
   N     62.36000000    50.33000000    45.24000000
   C     62.99000000    49.11000000    45.70000000
   C     63.78000000    49.27000000    46.99000000
   O     63.86000000    48.31000000    47.75000000
   C     63.77000000    48.45000000    44.57000000
   C     64.18000000    47.02000000    44.91000000
   O     64.90000000    49.24000000    44.27000000
   H     62.88000000    51.18000000    45.06000000
   H     62.26000000    48.40000000    46.08000000
   H     63.14000000    48.40000000    43.68000000
   H     64.70000000    49.85000000    43.56000000
   H     64.66000000    46.66000000    44.00000000
   H     64.89000000    46.84000000    45.71000000
   H     63.29000000    46.43000000    45.14000000
   N     64.33000000    50.46000000    47.24000000
   C     65.22000000    50.66000000    48.37000000
   C     65.02000000    52.07000000    48.91000000
   O     64.97000000    53.07000000    48.20000000
   C     66.65000000    50.33000000    47.97000000
   C     67.65000000    50.56000000    49.10000000
   C     69.09000000    50.34000000    48.62000000
   C     69.64000000    51.26000000    47.53000000
   N     69.96000000    52.63000000    47.95000000
   H     64.18000000    51.24000000    46.61000000
   H     64.94000000    50.06000000    49.24000000
   H     67.01000000    50.87000000    47.10000000
   H     66.74000000    49.28000000    47.70000000
   H     67.36000000    49.89000000    49.90000000
   H     67.60000000    51.59000000    49.47000000
   H     69.21000000    49.37000000    48.15000000
   H     69.79000000    50.37000000    49.46000000
   H     68.95000000    51.21000000    46.69000000
   H     70.57000000    50.86000000    47.14000000
   H     70.12000000    53.17000000    47.10000000
   H     69.25000000    53.14000000    48.45000000
   H     70.82000000    52.56000000    48.48000000
   N     64.88000000    52.23000000    50.23000000
   C     64.78000000    53.48000000    50.94000000
   C     63.50000000    54.28000000    50.80000000
   O     63.53000000    55.49000000    50.58000000
   C     65.12000000    53.30000000    52.42000000
   C     65.14000000    54.58000000    53.25000000
   C     65.94000000    55.74000000    52.68000000
   O     66.85000000    55.45000000    51.87000000
   O     65.83000000    56.93000000    53.05000000
   H     64.85000000    51.38000000    50.77000000
   H     65.46000000    54.22000000    50.52000000
   H     66.11000000    52.87000000    52.51000000
   H     64.44000000    52.57000000    52.87000000
   H     65.67000000    54.41000000    54.18000000
   H     64.13000000    54.88000000    53.50000000
   N     62.25000000    53.81000000    50.83000000
   C     61.81000000    52.60000000    51.49000000
   H     60.81500000    52.33300000    51.13300000
   H     62.50500000    51.79000000    51.26700000
   H     61.77600000    52.76500000    52.56700000
   H     61.55000000    54.53000000    50.71000000
  Ca     46.64000000    46.75000000    37.65000000
   O     45.24000000    44.75000000    36.72000000
   H     44.61000000    44.10000000    37.05000000
   H     45.45000000    44.44000000    35.84000000
   O     46.90000000    44.33000000    39.22000000
   H     47.73000000    43.92000000    38.95000000
   H     46.82000000    44.11000000    40.15000000
   O     44.48000000    46.46000000    39.35000000
   H     44.13000000    45.62000000    39.64000000
   H     43.82000000    47.10000000    39.59000000
   O     46.88000000    47.37000000    34.82000000
   H     46.48000000    47.18000000    33.97000000
   H     47.79000000    47.60000000    34.62000000
   O     44.49000000    47.92000000    36.27000000
   H     43.74000000    47.33000000    36.17000000
   H     44.75000000    48.14000000    35.37000000
   O     48.71000000    45.17000000    36.95000000
   H     49.04000000    44.35000000    36.58000000
   H     49.49000000    45.71000000    37.07000000

Ca 1.00



