%chk=loop1.apoCaM-CA-Ng.Init31.run11.water6.chk
%nprocshared=20
%mem=10GB
%nosave
#b3lyp/svp scf=(tight,noincore,xqc) Test 
#IOP(5/87=12) Density=Current Pop=(MK,readradii) iop(6/33=2) iop(6/42=6)

loop1.apoCaM-CA-Ng.Init31.run11.water6 

   0  1 
   C     65.31000000    75.05000000    -6.82000000
   C     63.87000000    74.58000000    -6.69000000
   O     63.45000000    73.85000000    -7.59000000
   H     65.94700000    74.20200000    -7.07000000
   H     65.37800000    75.80000000    -7.60800000
   H     65.63800000    75.48400000    -5.87600000
   N     63.13000000    74.97000000    -5.64000000
   C     61.74000000    74.61000000    -5.47000000
   C     60.79000000    75.68000000    -5.98000000
   O     61.18000000    76.85000000    -5.95000000
   C     61.57000000    74.21000000    -4.01000000
   C     60.55000000    73.11000000    -3.83000000
   O     60.68000000    72.35000000    -2.84000000
   O     59.47000000    73.05000000    -4.47000000
   H     63.65000000    75.64000000    -5.10000000
   H     61.66000000    73.68000000    -6.04000000
   H     61.31000000    75.07000000    -3.38000000
   H     62.51000000    73.94000000    -3.53000000
   N     59.56000000    75.39000000    -6.41000000
   C     58.58000000    76.28000000    -7.01000000
   C     58.11000000    77.37000000    -6.06000000
   O     58.18000000    78.56000000    -6.36000000
   C     57.33000000    75.49000000    -7.40000000
   C     57.61000000    74.46000000    -8.49000000
   C     56.39000000    73.59000000    -8.79000000
   C     55.21000000    74.32000000    -9.43000000
   N     54.46000000    73.35000000   -10.25000000
   H     59.38000000    74.40000000    -6.39000000
   H     58.97000000    76.86000000    -7.85000000
   H     56.62000000    76.22000000    -7.79000000
   H     56.81000000    75.01000000    -6.57000000
   H     58.43000000    73.88000000    -8.07000000
   H     57.93000000    74.93000000    -9.42000000
   H     56.07000000    73.01000000    -7.93000000
   H     56.74000000    72.91000000    -9.57000000
   H     55.59000000    75.16000000   -10.01000000
   H     54.54000000    74.86000000    -8.76000000
   H     55.06000000    72.68000000   -10.71000000
   H     53.76000000    72.84000000    -9.73000000
   H     53.98000000    73.89000000   -10.96000000
   N     57.83000000    77.08000000    -4.79000000
   C     57.42000000    75.85000000    -4.14000000
   C     58.03000000    75.82000000    -2.75000000
   O     58.47000000    76.84000000    -2.22000000
   C     55.89000000    75.79000000    -4.08000000
   C     55.25000000    74.55000000    -3.48000000
   O     55.77000000    73.41000000    -3.60000000
   O     54.14000000    74.62000000    -2.92000000
   H     57.95000000    77.87000000    -4.17000000
   H     57.72000000    74.96000000    -4.71000000
   H     55.53000000    75.98000000    -5.09000000
   H     55.66000000    76.66000000    -3.47000000
   N     57.99000000    74.66000000    -2.09000000
   C     58.53000000    74.49000000    -0.76000000
   C     58.24000000    73.10000000    -0.21000000
   O     57.52000000    73.02000000     0.78000000
   H     57.70000000    73.89000000    -2.68000000
   H     58.22000000    75.34000000    -0.15000000
   H     59.62000000    74.44000000    -0.87000000
   N     58.68000000    71.98000000    -0.79000000
   C     58.40000000    70.64000000    -0.30000000
   C     58.82000000    70.27000000     1.12000000
   O     58.07000000    70.37000000     2.08000000
   C     56.97000000    70.21000000    -0.60000000
   C     56.49000000    70.41000000    -2.03000000
   O     55.28000000    70.21000000    -2.23000000
   O     57.29000000    70.70000000    -2.95000000
   H     59.18000000    72.15000000    -1.65000000
   H     59.07000000    70.00000000    -0.87000000
   H     56.22000000    70.76000000    -0.02000000
   H     56.89000000    69.15000000    -0.35000000
   N     60.06000000    69.79000000     1.30000000
   C     61.10000000    69.50000000     0.35000000
   C     60.93000000    68.21000000    -0.44000000
   O     61.86000000    67.92000000    -1.19000000
   H     60.23000000    69.59000000     2.28000000
   H     62.08000000    69.43000000     0.83000000
   H     61.20000000    70.37000000    -0.29000000
   N     59.87000000    67.46000000    -0.13000000
   C     59.60000000    66.11000000    -0.60000000
   C     60.71000000    65.08000000    -0.40000000
   O     61.39000000    64.60000000    -1.30000000
   C     59.20000000    66.21000000    -2.07000000
   C     58.15000000    67.27000000    -2.39000000
   O     58.56000000    65.01000000    -2.43000000
   H     59.33000000    67.80000000     0.64000000
   H     58.74000000    65.70000000    -0.09000000
   H     60.01000000    66.56000000    -2.71000000
   H     59.15000000    64.56000000    -3.04000000
   H     58.69000000    68.21000000    -2.54000000
   H     57.60000000    66.94000000    -3.27000000
   H     57.40000000    67.39000000    -1.61000000
   N     61.01000000    64.85000000     0.88000000
   C     61.91000000    63.86000000     1.44000000
   C     61.59000000    62.40000000     1.13000000
   O     61.82000000    61.50000000     1.93000000
   C     63.33000000    64.20000000     1.00000000
   C     63.90000000    65.61000000     0.84000000
   C     64.26000000    63.49000000     1.97000000
   C     63.76000000    66.51000000     2.07000000
   H     60.62000000    65.44000000     1.60000000
   H     61.79000000    64.03000000     2.51000000
   H     63.36000000    63.74000000     0.02000000
   H     63.38000000    66.11000000     0.02000000
   H     64.97000000    65.61000000     0.64000000
   H     65.33000000    63.70000000     1.84000000
   H     63.97000000    63.82000000     2.97000000
   H     64.06000000    62.42000000     1.91000000
   H     62.76000000    66.69000000     2.47000000
   H     64.33000000    66.11000000     2.91000000
   H     64.21000000    67.47000000     1.78000000
   N     61.05000000    62.08000000    -0.05000000
   C     60.50000000    60.77000000    -0.36000000
   C     61.52000000    59.99000000    -1.17000000
   O     62.33000000    60.53000000    -1.92000000
   C     59.23000000    60.84000000    -1.21000000
   C     59.42000000    61.52000000    -2.56000000
   O     58.28000000    61.70000000    -0.62000000
   H     60.96000000    62.73000000    -0.81000000
   H     60.18000000    60.27000000     0.55000000
   H     58.82000000    59.83000000    -1.24000000
   H     58.04000000    61.53000000     0.29000000
   H     58.51000000    61.52000000    -3.16000000
   H     59.90000000    62.49000000    -2.41000000
   H     60.08000000    60.93000000    -3.19000000
   N     61.48000000    58.66000000    -1.14000000
   C     62.37000000    57.88000000    -1.97000000
   C     62.07000000    58.08000000    -3.45000000
   O     60.95000000    57.84000000    -3.92000000
   C     62.27000000    56.38000000    -1.69000000
   C     63.34000000    55.58000000    -2.43000000
   O     62.50000000    56.15000000    -0.31000000
   H     60.68000000    58.22000000    -0.69000000
   H     63.42000000    58.11000000    -1.79000000
   H     61.27000000    56.11000000    -2.00000000
   H     61.83000000    55.56000000     0.05000000
   H     64.31000000    56.04000000    -2.25000000
   H     63.24000000    54.58000000    -2.02000000
   H     63.14000000    55.57000000    -3.50000000
   N     63.07000000    58.52000000    -4.21000000
   C     63.02000000    58.93000000    -5.60000000
   C     61.95000000    59.98000000    -5.89000000
   O     60.96000000    59.69000000    -6.55000000
   C     63.04000000    57.67000000    -6.45000000
   C     63.33000000    58.03000000    -7.90000000
   C     63.66000000    56.77000000    -8.70000000
   C     64.06000000    57.11000000   -10.13000000
   N     64.38000000    55.85000000   -10.82000000
   H     63.96000000    58.68000000    -3.75000000
   H     63.92000000    59.51000000    -5.81000000
   H     62.06000000    57.20000000    -6.32000000
   H     63.76000000    56.93000000    -6.10000000
   H     64.17000000    58.71000000    -7.97000000
   H     62.45000000    58.58000000    -8.24000000
   H     62.76000000    56.18000000    -8.85000000
   H     64.42000000    56.18000000    -8.17000000
   H     64.81000000    57.89000000   -10.17000000
   H     63.26000000    57.62000000   -10.66000000
   H     64.82000000    56.11000000   -11.69000000
   H     65.03000000    55.36000000   -10.22000000
   H     63.56000000    55.29000000   -11.00000000
   N     62.09000000    61.23000000    -5.43000000
   C     61.32000000    62.42000000    -5.71000000
   C     61.28000000    63.55000000    -4.68000000
   O     60.20000000    64.05000000    -4.39000000
   C     61.74000000    63.04000000    -7.04000000
   C     60.63000000    63.97000000    -7.54000000
   C     61.02000000    64.56000000    -8.88000000
   O     61.69000000    63.94000000    -9.73000000
   O     60.59000000    65.71000000    -9.14000000
   H     62.95000000    61.38000000    -4.92000000
   H     60.31000000    62.05000000    -5.88000000
   H     61.87000000    62.24000000    -7.77000000
   H     62.63000000    63.66000000    -6.92000000
   H     60.57000000    64.82000000    -6.86000000
   H     59.67000000    63.46000000    -7.61000000
   N     62.30000000    64.11000000    -4.03000000
   C     63.68000000    63.69000000    -4.08000000
   H     64.29000000    64.38000000    -3.49700000
   H     63.77000000    62.68600000    -3.66500000
   H     64.02300000    63.68800000    -5.11500000
   H     62.12000000    64.79000000    -3.30000000
  Ca     55.52000000    71.04000000    -4.72600000
   O     53.19000000    70.07000000    -5.66600000
   H     52.80000000    69.20000000    -5.72600000
   H     52.47000000    70.65000000    -5.41600000
   O     53.37000000    72.02000000    -3.27600000
   H     53.25000000    71.96000000    -2.32600000
   H     53.76000000    72.89000000    -3.41600000
   O     58.01000000    71.41000000    -5.83600000
   H     58.64000000    71.15000000    -6.50600000
   H     58.53000000    71.93000000    -5.21600000
   O     56.11000000    68.59000000    -4.71600000
   H     56.54000000    68.07000000    -5.40600000
   H     55.44000000    68.00000000    -4.36600000
   O     55.61000000    70.36000000    -7.40600000
   H     56.27000000    70.29000000    -8.09600000
   H     54.80000000    70.09000000    -7.82600000
   O     54.09000000    72.88000000    -6.20600000
   H     53.63000000    72.46000000    -6.92600000
   H     53.76000000    73.78000000    -6.20600000

Ca 1.00



