%chk=loop3.apoCaM-CA-Ng.Init293.run18.water4.chk
%nprocshared=20
%mem=10GB
%nosave
#b3lyp/svp scf=(tight,noincore,xqc) Test 
#IOP(5/87=12) Density=Current Pop=(MK,readradii) iop(6/33=2) iop(6/42=6)

loop3.apoCaM-CA-Ng.Init293.run18.water4 

   0  1 
   C     50.37000000    18.27000000    11.53000000
   C     49.84000000    19.32000000    10.58000000
   O     50.31000000    20.46000000    10.54000000
   H     51.28000000    18.63700000    12.00500000
   H     49.62200000    18.06000000    12.29400000
   H     50.59200000    17.35700000    10.97700000
   N     48.89000000    18.86000000     9.77000000
   C     48.11000000    19.58000000     8.78000000
   C     47.43000000    20.88000000     9.17000000
   O     47.98000000    21.76000000     9.84000000
   C     48.86000000    19.57000000     7.45000000
   C     49.40000000    18.17000000     7.16000000
   O     48.63000000    17.35000000     6.63000000
   O     50.62000000    17.92000000     7.32000000
   H     48.63000000    17.89000000     9.90000000
   H     47.35000000    18.84000000     8.52000000
   H     49.69000000    20.28000000     7.49000000
   H     48.18000000    19.95000000     6.69000000
   N     46.19000000    21.08000000     8.72000000
   C     45.38000000    22.27000000     8.89000000
   C     46.05000000    23.62000000     8.68000000
   O     46.11000000    24.09000000     7.54000000
   C     44.57000000    22.27000000    10.18000000
   C     43.66000000    21.06000000    10.37000000
   C     43.11000000    20.87000000    11.78000000
   C     44.10000000    20.75000000    12.93000000
   N     43.52000000    21.13000000    14.24000000
   H     45.84000000    20.33000000     8.14000000
   H     44.58000000    22.24000000     8.14000000
   H     44.00000000    23.20000000    10.24000000
   H     45.28000000    22.30000000    11.01000000
   H     44.27000000    20.17000000    10.22000000
   H     42.82000000    21.14000000     9.68000000
   H     42.40000000    20.04000000    11.83000000
   H     42.55000000    21.80000000    11.89000000
   H     44.99000000    21.37000000    12.82000000
   H     44.51000000    19.75000000    12.96000000
   H     43.12000000    22.06000000    14.21000000
   H     42.78000000    20.49000000    14.50000000
   H     44.27000000    21.03000000    14.91000000
   N     46.54000000    24.36000000     9.67000000
   C     47.21000000    25.64000000     9.73000000
   C     48.63000000    25.51000000    10.27000000
   O     48.77000000    24.74000000    11.22000000
   C     46.35000000    26.48000000    10.68000000
   C     46.71000000    27.94000000    10.89000000
   O     47.27000000    28.54000000     9.95000000
   O     46.70000000    28.48000000    12.02000000
   H     46.59000000    23.88000000    10.57000000
   H     47.09000000    26.06000000     8.73000000
   H     46.43000000    26.07000000    11.69000000
   H     45.30000000    26.41000000    10.40000000
   N     49.51000000    26.30000000     9.66000000
   C     50.85000000    26.46000000    10.19000000
   C     50.94000000    27.52000000    11.27000000
   O     50.03000000    28.34000000    11.37000000
   H     49.26000000    26.88000000     8.87000000
   H     51.51000000    26.73000000     9.36000000
   H     51.15000000    25.50000000    10.60000000
   N     51.94000000    27.52000000    12.16000000
   C     52.08000000    28.56000000    13.16000000
   C     53.19000000    29.54000000    12.82000000
   O     53.15000000    30.71000000    13.20000000
   C     52.24000000    27.88000000    14.52000000
   C     51.05000000    27.03000000    14.94000000
   N     49.89000000    27.65000000    15.16000000
   O     51.12000000    25.81000000    15.09000000
   H     52.70000000    26.86000000    12.02000000
   H     51.17000000    29.15000000    13.21000000
   H     52.43000000    28.56000000    15.34000000
   H     53.08000000    27.20000000    14.37000000
   H     49.70000000    28.60000000    14.86000000
   H     49.14000000    27.02000000    15.37000000
   N     54.20000000    29.18000000    12.02000000
   C     55.08000000    30.15000000    11.40000000
   C     56.03000000    30.74000000    12.43000000
   O     56.71000000    29.97000000    13.10000000
   H     54.24000000    28.20000000    11.77000000
   H     54.50000000    30.98000000    11.00000000
   H     55.73000000    29.70000000    10.65000000
   N     55.97000000    32.06000000    12.63000000
   C     56.46000000    32.75000000    13.80000000
   C     56.06000000    32.23000000    15.18000000
   O     56.74000000    32.55000000    16.15000000
   C     57.96000000    32.93000000    13.60000000
   C     58.39000000    33.87000000    12.49000000
   C     59.23000000    33.43000000    11.46000000
   C     58.10000000    35.23000000    12.64000000
   C     59.86000000    34.32000000    10.58000000
   C     58.91000000    36.14000000    11.95000000
   C     59.66000000    35.69000000    10.84000000
   O     60.30000000    36.63000000    10.08000000
   H     55.23000000    32.54000000    12.13000000
   H     56.03000000    33.74000000    13.80000000
   H     58.49000000    32.00000000    13.42000000
   H     58.44000000    33.20000000    14.54000000
   H     59.38000000    32.36000000    11.49000000
   H     57.58000000    35.53000000    13.54000000
   H     60.32000000    34.04000000     9.65000000
   H     58.79000000    37.19000000    12.14000000
   H     60.14000000    37.54000000    10.34000000
   N     54.92000000    31.56000000    15.32000000
   C     54.29000000    31.28000000    16.60000000
   C     53.84000000    32.51000000    17.37000000
   O     52.67000000    32.61000000    17.73000000
   C     55.09000000    30.27000000    17.42000000
   C     55.31000000    28.99000000    16.62000000
   C     54.37000000    29.95000000    18.73000000
   C     56.49000000    28.24000000    17.24000000
   H     54.29000000    31.55000000    14.53000000
   H     53.40000000    30.77000000    16.21000000
   H     55.99000000    30.83000000    17.70000000
   H     55.54000000    29.24000000    15.59000000
   H     54.38000000    28.43000000    16.71000000
   H     54.84000000    29.16000000    19.31000000
   H     54.52000000    30.83000000    19.36000000
   H     53.30000000    29.76000000    18.64000000
   H     56.34000000    27.90000000    18.27000000
   H     56.73000000    27.35000000    16.67000000
   H     57.42000000    28.80000000    17.16000000
   N     54.67000000    33.53000000    17.63000000
   C     54.41000000    34.73000000    18.39000000
   C     53.82000000    34.68000000    19.80000000
   O     53.06000000    35.57000000    20.19000000
   C     55.58000000    35.71000000    18.33000000
   O     56.81000000    35.04000000    18.51000000
   H     55.65000000    33.47000000    17.38000000
   H     53.65000000    35.20000000    17.77000000
   H     55.53000000    36.51000000    19.06000000
   H     55.65000000    36.14000000    17.33000000
   H     57.51000000    35.69000000    18.58000000
   N     54.12000000    33.62000000    20.55000000
   C     53.37000000    33.12000000    21.68000000
   C     51.85000000    33.14000000    21.50000000
   O     51.12000000    33.51000000    22.42000000
   C     53.85000000    33.86000000    22.92000000
   H     54.94000000    33.05000000    20.36000000
   H     53.64000000    32.08000000    21.88000000
   H     53.27000000    33.36000000    23.69000000
   H     54.90000000    33.78000000    23.21000000
   H     53.55000000    34.90000000    22.89000000
   N     51.35000000    32.74000000    20.33000000
   C     49.99000000    32.86000000    19.85000000
   C     49.52000000    31.70000000    18.98000000
   O     50.24000000    30.84000000    18.47000000
   C     49.87000000    34.16000000    19.06000000
   H     52.06000000    32.48000000    19.65000000
   H     49.23000000    32.98000000    20.62000000
   H     50.12000000    35.00000000    19.71000000
   H     50.32000000    34.23000000    18.07000000
   H     48.81000000    34.31000000    18.87000000
   N     48.19000000    31.58000000    18.98000000
   C     47.38000000    30.44000000    18.57000000
   C     47.65000000    29.16000000    19.34000000
   O     47.27000000    28.04000000    19.01000000
   C     47.54000000    30.21000000    17.07000000
   C     47.12000000    31.38000000    16.18000000
   C     47.53000000    31.03000000    14.76000000
   O     46.81000000    31.34000000    13.78000000
   O     48.58000000    30.40000000    14.52000000
   H     47.63000000    32.36000000    19.29000000
   H     46.36000000    30.65000000    18.88000000
   H     47.00000000    29.31000000    16.75000000
   H     48.57000000    29.90000000    16.90000000
   H     47.61000000    32.31000000    16.49000000
   H     46.06000000    31.61000000    16.21000000
   N     48.12000000    29.36000000    20.58000000
   C     48.59000000    28.25000000    21.38000000
   H     49.50200000    28.53900000    21.90100000
   H     47.82700000    27.97800000    22.10900000
   H     48.79700000    27.39700000    20.73300000
   H     48.13000000    30.30000000    20.94000000
  Ca     48.20000000    30.47000000    11.72000000
   O     49.56000000    30.93000000     9.47000000
   H     49.12000000    30.64000000     8.67000000
   H     50.42000000    31.23000000     9.17000000
   O     50.54000000    31.77000000    13.09000000
   H     51.45000000    31.50000000    13.15000000
   H     50.30000000    32.01000000    13.99000000
   O     46.31000000    31.77000000    10.37000000
   H     46.06000000    31.19000000     9.64000000
   H     46.48000000    32.62000000     9.95000000
   O     48.61000000    33.15000000    11.31000000
   H     48.67000000    33.32000000    10.37000000
   H     49.27000000    33.74000000    11.70000000

Ca 1.00



