%chk=loop2.holoCaM-CaMKII.run7.water2.chk
%nprocshared=20
%mem=10GB
%nosave
#b3lyp/svp scf=(tight,noincore,xqc) Test 
#IOP(5/87=12) Density=Current Pop=(MK,readradii) iop(6/33=2) iop(6/42=6)

loop2.holoCaM-CaMKII.run7.water2 

   -2  1 
   C     70.34000000    80.58000000    24.57000000
   C     71.37000000    81.65000000    24.24000000
   O     72.14000000    81.86000000    25.18000000
   H     69.42900000    80.76600000    24.00200000
   H     70.73700000    79.59900000    24.30800000
   H     70.11500000    80.60800000    25.63600000
   N     71.39000000    82.43000000    23.15000000
   C     72.37000000    83.46000000    22.89000000
   C     72.34000000    84.61000000    23.88000000
   O     71.28000000    85.03000000    24.33000000
   C     72.29000000    83.98000000    21.46000000
   C     73.61000000    84.60000000    21.04000000
   O     74.63000000    84.47000000    21.75000000
   O     73.71000000    84.92000000    19.83000000
   H     70.88000000    82.11000000    22.35000000
   H     73.33000000    82.96000000    23.07000000
   H     71.53000000    84.75000000    21.52000000
   H     72.01000000    83.23000000    20.71000000
   N     73.49000000    85.24000000    24.14000000
   C     73.66000000    86.34000000    25.06000000
   C     74.78000000    87.28000000    24.64000000
   O     75.05000000    88.28000000    25.30000000
   C     73.84000000    85.74000000    26.46000000
   H     74.24000000    85.00000000    23.51000000
   H     72.70000000    86.86000000    25.01000000
   H     72.94000000    85.18000000    26.71000000
   H     74.68000000    85.04000000    26.42000000
   H     73.98000000    86.54000000    27.18000000
   N     75.38000000    87.00000000    23.49000000
   C     76.47000000    87.80000000    22.95000000
   C     76.44000000    87.91000000    21.44000000
   O     76.94000000    88.91000000    20.93000000
   C     77.82000000    87.29000000    23.42000000
   C     78.15000000    85.81000000    23.21000000
   O     77.59000000    85.19000000    22.28000000
   O     79.04000000    85.32000000    23.93000000
   H     75.19000000    86.17000000    22.94000000
   H     76.38000000    88.82000000    23.33000000
   H     78.01000000    87.58000000    24.46000000
   H     78.62000000    87.82000000    22.91000000
   N     75.92000000    86.97000000    20.64000000
   C     75.98000000    87.08000000    19.20000000
   C     77.34000000    86.81000000    18.57000000
   O     77.65000000    87.17000000    17.44000000
   H     75.51000000    86.15000000    21.06000000
   H     75.61000000    88.08000000    18.99000000
   H     75.20000000    86.46000000    18.75000000
   N     78.14000000    86.00000000    19.27000000
   C     79.41000000    85.52000000    18.76000000
   C     79.25000000    84.48000000    17.66000000
   O     80.27000000    83.94000000    17.23000000
   C     80.34000000    85.17000000    19.92000000
   C     79.94000000    83.89000000    20.64000000
   N     80.79000000    83.35000000    21.51000000
   O     78.86000000    83.37000000    20.36000000
   H     78.02000000    85.90000000    20.26000000
   H     79.89000000    86.36000000    18.25000000
   H     80.41000000    86.03000000    20.59000000
   H     81.35000000    85.02000000    19.54000000
   H     81.69000000    83.78000000    21.67000000
   H     80.53000000    82.52000000    22.03000000
   N     78.10000000    84.09000000    17.10000000
   C     77.95000000    83.14000000    16.02000000
   C     77.81000000    81.67000000    16.41000000
   O     77.57000000    80.87000000    15.51000000
   H     77.24000000    84.31000000    17.57000000
   H     78.77000000    83.26000000    15.30000000
   H     76.99000000    83.32000000    15.54000000
   N     77.96000000    81.34000000    17.70000000
   C     77.79000000    80.00000000    18.21000000
   C     76.94000000    79.91000000    19.47000000
   O     76.84000000    80.91000000    20.18000000
   C     79.18000000    79.45000000    18.53000000
   C     79.82000000    79.23000000    17.17000000
   O     79.86000000    80.42000000    19.30000000
   H     78.13000000    82.12000000    18.32000000
   H     77.46000000    79.34000000    17.41000000
   H     79.12000000    78.49000000    19.04000000
   H     79.69000000    80.25000000    20.23000000
   H     80.74000000    78.68000000    17.40000000
   H     79.26000000    78.53000000    16.55000000
   H     80.02000000    80.12000000    16.58000000
   N     76.40000000    78.76000000    19.86000000
   C     76.08000000    78.54000000    21.26000000
   C     77.42000000    78.33000000    21.94000000
   O     78.21000000    77.44000000    21.61000000
   C     75.15000000    77.34000000    21.46000000
   C     73.98000000    77.26000000    20.49000000
   C     74.75000000    77.26000000    22.93000000
   C     73.49000000    75.82000000    20.32000000
   H     76.43000000    77.97000000    19.23000000
   H     75.71000000    79.46000000    21.71000000
   H     75.69000000    76.40000000    21.31000000
   H     74.20000000    77.63000000    19.49000000
   H     73.14000000    77.83000000    20.89000000
   H     74.33000000    78.24000000    23.18000000
   H     74.06000000    76.44000000    23.15000000
   H     75.65000000    77.07000000    23.51000000
   H     73.24000000    75.50000000    21.33000000
   H     72.59000000    75.78000000    19.72000000
   H     74.29000000    75.18000000    19.94000000
   N     77.62000000    78.95000000    23.10000000
   C     78.76000000    78.66000000    23.95000000
   C     78.46000000    77.78000000    25.15000000
   O     77.30000000    77.61000000    25.52000000
   C     79.41000000    79.98000000    24.36000000
   C     79.31000000    80.90000000    23.15000000
   O     78.60000000    81.92000000    23.17000000
   O     80.11000000    80.71000000    22.21000000
   H     76.99000000    79.67000000    23.42000000
   H     79.61000000    78.17000000    23.48000000
   H     80.44000000    79.91000000    24.71000000
   H     78.92000000    80.43000000    25.23000000
   N     79.40000000    77.09000000    25.79000000
   C     79.16000000    76.23000000    26.93000000
   C     78.29000000    76.78000000    28.05000000
   O     77.25000000    76.16000000    28.26000000
   C     80.43000000    75.77000000    27.64000000
   C     80.19000000    74.79000000    28.77000000
   C     80.33000000    75.04000000    30.14000000
   C     79.70000000    73.52000000    28.43000000
   C     80.00000000    74.08000000    31.10000000
   C     79.32000000    72.58000000    29.40000000
   C     79.49000000    72.82000000    30.76000000
   H     80.36000000    77.15000000    25.48000000
   H     78.69000000    75.35000000    26.49000000
   H     81.10000000    76.54000000    28.01000000
   H     80.88000000    75.19000000    26.84000000
   H     80.78000000    75.96000000    30.47000000
   H     79.62000000    73.23000000    27.40000000
   H     80.09000000    74.36000000    32.14000000
   H     78.83000000    71.65000000    29.14000000
   H     79.22000000    72.11000000    31.53000000
   N     78.41000000    78.01000000    28.56000000
   C     77.50000000    78.43000000    29.61000000
   C     76.07000000    78.70000000    29.14000000
   O     75.08000000    78.51000000    29.84000000
   C     78.15000000    79.64000000    30.26000000
   C     79.57000000    79.52000000    29.71000000
   C     79.48000000    78.95000000    28.30000000
   H     77.48000000    77.66000000    30.39000000
   H     77.73000000    80.58000000    29.90000000
   H     78.20000000    79.55000000    31.34000000
   H     79.95000000    80.54000000    29.67000000
   H     80.09000000    78.86000000    30.40000000
   H     79.22000000    79.88000000    27.79000000
   H     80.46000000    78.54000000    28.07000000
   N     75.86000000    78.99000000    27.86000000
   C     74.58000000    79.20000000    27.23000000
   C     73.83000000    77.90000000    27.03000000
   O     72.67000000    77.75000000    27.43000000
   C     74.75000000    79.86000000    25.86000000
   C     75.62000000    81.11000000    25.88000000
   C     75.69000000    81.75000000    24.51000000
   O     75.81000000    82.99000000    24.41000000
   O     75.82000000    81.01000000    23.51000000
   H     76.69000000    79.06000000    27.28000000
   H     73.95000000    79.91000000    27.77000000
   H     73.76000000    80.17000000    25.52000000
   H     75.15000000    79.15000000    25.14000000
   H     76.63000000    80.86000000    26.21000000
   H     75.19000000    81.85000000    26.56000000
   N     74.57000000    76.91000000    26.54000000
   C     74.09000000    75.54000000    26.42000000
   H     73.13600000    75.53500000    25.89200000
   H     74.81600000    74.94800000    25.86300000
   H     73.95700000    75.11300000    27.41400000
   H     75.46000000    77.09000000    26.10000000
  Ca     76.63000000    82.77000000    21.83000000
   O     73.98000000    81.29000000    21.19000000
   H     73.03000000    81.18000000    21.08000000
   H     74.21000000    80.68000000    21.89000000
   O     75.86000000    83.69000000    19.36000000
   H     75.17000000    84.34000000    19.50000000
   H     75.55000000    83.16000000    18.63000000

Ca 1.00



