%chk=loop3.apoCaM-CA-Ng.Init31.run74.water6.chk
%nprocshared=20
%mem=10GB
%nosave
#b3lyp/svp scf=(tight,noincore,xqc) Test 
#IOP(5/87=12) Density=Current Pop=(MK,readradii) iop(6/33=2) iop(6/42=6)

loop3.apoCaM-CA-Ng.Init31.run74.water6 

   0  1 
   C    105.71000000    56.37000000    27.29000000
   C    104.46000000    56.03000000    26.49000000
   O    103.68000000    55.19000000    26.93000000
   H    106.48400000    56.73600000    26.61500000
   H    105.47400000    57.14100000    28.02400000
   H    106.06800000    55.47700000    27.80300000
   N    104.34000000    56.68000000    25.33000000
   C    103.15000000    56.64000000    24.49000000
   C    103.39000000    55.94000000    23.16000000
   O    104.56000000    55.77000000    22.81000000
   C    102.49000000    57.97000000    24.18000000
   C    103.31000000    59.26000000    24.08000000
   O    103.36000000    60.00000000    25.09000000
   O    104.00000000    59.49000000    23.07000000
   H    105.04000000    57.32000000    24.99000000
   H    102.31000000    56.08000000    24.91000000
   H    101.88000000    58.19000000    25.06000000
   H    101.84000000    57.92000000    23.31000000
   N    102.36000000    55.67000000    22.36000000
   C    102.50000000    55.14000000    21.02000000
   C    103.25000000    53.81000000    21.03000000
   O    104.13000000    53.49000000    20.24000000
   C    101.14000000    55.18000000    20.34000000
   C    101.27000000    54.54000000    18.96000000
   C     99.98000000    54.51000000    18.15000000
   C    100.17000000    53.66000000    16.90000000
   N     98.99000000    53.00000000    16.31000000
   H    101.44000000    56.04000000    22.56000000
   H    103.14000000    55.89000000    20.55000000
   H    100.88000000    56.23000000    20.19000000
   H    100.37000000    54.65000000    20.90000000
   H    101.56000000    53.49000000    19.07000000
   H    102.04000000    55.13000000    18.46000000
   H     99.70000000    55.47000000    17.72000000
   H     99.17000000    54.11000000    18.75000000
   H    100.95000000    52.91000000    17.01000000
   H    100.47000000    54.33000000    16.09000000
   H     99.32000000    52.49000000    15.51000000
   H     98.71000000    52.26000000    16.93000000
   H     98.25000000    53.64000000    16.05000000
   N    102.99000000    52.97000000    22.03000000
   C    103.82000000    51.86000000    22.45000000
   C    103.33000000    50.63000000    21.69000000
   O    103.04000000    49.62000000    22.33000000
   C    103.92000000    51.74000000    23.97000000
   C    102.58000000    51.69000000    24.68000000
   O    102.59000000    51.50000000    25.92000000
   O    101.49000000    52.00000000    24.16000000
   H    102.26000000    53.23000000    22.68000000
   H    104.86000000    51.94000000    22.16000000
   H    104.41000000    52.67000000    24.24000000
   H    104.47000000    50.83000000    24.23000000
   N    103.26000000    50.72000000    20.36000000
   C    102.76000000    49.67000000    19.50000000
   C    101.33000000    49.97000000    19.05000000
   O    100.66000000    50.81000000    19.66000000
   H    103.69000000    51.49000000    19.87000000
   H    102.76000000    48.67000000    19.93000000
   H    103.43000000    49.63000000    18.64000000
   N    100.66000000    49.29000000    18.13000000
   C    101.06000000    48.01000000    17.57000000
   C    100.03000000    46.91000000    17.78000000
   O     98.84000000    47.22000000    17.80000000
   C    101.22000000    48.25000000    16.07000000
   C    102.08000000    49.45000000    15.67000000
   N    103.41000000    49.35000000    15.64000000
   O    101.56000000    50.54000000    15.42000000
   H     99.67000000    49.47000000    18.01000000
   H    102.04000000    47.66000000    17.91000000
   H    100.22000000    48.47000000    15.69000000
   H    101.66000000    47.38000000    15.60000000
   H    103.93000000    48.50000000    15.83000000
   H    103.99000000    50.11000000    15.32000000
   N    100.39000000    45.64000000    17.98000000
   C    101.62000000    44.97000000    17.59000000
   C    102.72000000    45.09000000    18.63000000
   O    102.80000000    46.01000000    19.44000000
   H     99.55000000    45.09000000    18.05000000
   H    101.93000000    45.33000000    16.62000000
   H    101.34000000    43.93000000    17.43000000
   N    103.64000000    44.12000000    18.59000000
   C    104.77000000    43.87000000    19.47000000
   C    106.04000000    43.50000000    18.71000000
   O    106.64000000    42.51000000    19.13000000
   C    104.34000000    42.92000000    20.58000000
   C    103.09000000    43.31000000    21.32000000
   C    103.26000000    44.06000000    22.49000000
   C    101.81000000    42.98000000    20.87000000
   C    102.16000000    44.26000000    23.33000000
   C    100.66000000    43.43000000    21.54000000
   C    100.88000000    43.98000000    22.82000000
   O     99.77000000    44.34000000    23.54000000
   H    103.44000000    43.48000000    17.84000000
   H    104.94000000    44.83000000    19.96000000
   H    105.18000000    42.93000000    21.28000000
   H    104.24000000    41.92000000    20.15000000
   H    104.27000000    44.19000000    22.84000000
   H    101.68000000    42.54000000    19.89000000
   H    102.23000000    44.66000000    24.34000000
   H     99.70000000    43.17000000    21.13000000
   H     98.96000000    44.03000000    23.14000000
   N    106.58000000    44.28000000    17.78000000
   C    107.60000000    43.92000000    16.81000000
   C    108.65000000    44.98000000    16.51000000
   O    109.55000000    44.75000000    15.71000000
   C    107.01000000    43.36000000    15.52000000
   C    106.40000000    41.98000000    15.80000000
   C    106.04000000    44.33000000    14.84000000
   C    106.00000000    41.37000000    14.46000000
   H    106.26000000    45.23000000    17.74000000
   H    108.15000000    43.05000000    17.19000000
   H    107.82000000    43.10000000    14.84000000
   H    105.65000000    42.06000000    16.58000000
   H    107.21000000    41.37000000    16.21000000
   H    106.46000000    45.32000000    14.66000000
   H    105.87000000    43.91000000    13.85000000
   H    105.10000000    44.39000000    15.38000000
   H    105.06000000    41.86000000    14.18000000
   H    106.77000000    41.62000000    13.72000000
   H    105.86000000    40.31000000    14.62000000
   N    108.67000000    46.11000000    17.23000000
   C    109.66000000    47.15000000    17.06000000
   C    109.15000000    48.58000000    17.22000000
   O    109.93000000    49.49000000    16.95000000
   C    110.84000000    47.00000000    18.02000000
   O    110.55000000    47.34000000    19.36000000
   H    107.94000000    46.33000000    17.89000000
   H    110.08000000    47.08000000    16.05000000
   H    111.73000000    47.51000000    17.66000000
   H    111.26000000    46.00000000    18.08000000
   H    109.69000000    47.01000000    19.62000000
   N    107.95000000    48.77000000    17.78000000
   C    107.43000000    50.09000000    18.04000000
   C    107.98000000    50.63000000    19.35000000
   O    107.25000000    51.29000000    20.09000000
   C    105.92000000    50.04000000    17.87000000
   H    107.41000000    48.02000000    18.19000000
   H    107.84000000    50.65000000    17.19000000
   H    105.57000000    51.07000000    17.96000000
   H    105.72000000    49.54000000    16.92000000
   H    105.63000000    49.38000000    18.69000000
   N    109.24000000    50.30000000    19.63000000
   C    109.92000000    50.43000000    20.90000000
   C    109.04000000    49.95000000    22.04000000
   O    108.80000000    50.72000000    22.97000000
   C    110.53000000    51.82000000    21.00000000
   H    109.80000000    49.85000000    18.92000000
   H    110.78000000    49.76000000    20.77000000
   H    111.30000000    52.03000000    20.25000000
   H    109.73000000    52.56000000    21.06000000
   H    111.02000000    51.89000000    21.97000000
   N    108.47000000    48.74000000    21.96000000
   C    107.53000000    48.21000000    22.93000000
   C    108.09000000    46.91000000    23.49000000
   O    108.03000000    46.74000000    24.70000000
   C    106.14000000    48.01000000    22.33000000
   C    105.85000000    46.87000000    21.36000000
   C    106.77000000    46.83000000    20.15000000
   O    108.01000000    46.80000000    20.22000000
   O    106.28000000    46.74000000    19.00000000
   H    108.84000000    48.09000000    21.29000000
   H    107.46000000    48.90000000    23.78000000
   H    105.96000000    48.93000000    21.77000000
   H    105.43000000    47.94000000    23.15000000
   H    104.80000000    46.90000000    21.08000000
   H    106.14000000    45.93000000    21.84000000
   N    108.77000000    46.08000000    22.70000000
   C    109.53000000    44.96000000    23.22000000
   H    110.45800000    45.32500000    23.66000000
   H    108.94500000    44.44600000    23.98200000
   H    109.76000000    44.26900000    22.40900000
   H    108.79000000    46.27000000    21.71000000
  Ca    100.13700000    52.00000000    26.98000000
   O     98.45000000    51.97000000    24.74000000
   H     98.69000000    52.02000000    23.81000000
   H     97.52000000    52.17000000    24.76000000
   O    102.07700000    53.22000000    28.42000000
   H    102.57700000    53.88000000    27.93000000
   H    102.67700000    52.93000000    29.11000000
   O     98.17000000    50.14000000    27.69000000
   H     98.15000000    49.20000000    27.50000000
   H     97.25000000    50.38000000    27.82000000
   O    100.44700000    49.50000000    25.89000000
   H     99.97700000    49.55000000    25.06000000
   H    100.88700000    48.65000000    25.87000000
   O    101.03700000    50.35000000    29.02000000
   H    100.94700000    49.40000000    29.06000000
   H    101.26700000    50.61000000    29.91000000
   O    100.40700000    54.49000000    25.67000000
   H     99.99700000    55.04000000    25.01000000
   H    100.81700000    53.78000000    25.16000000

Ca 1.00



