%chk=loop4.apoCaM-CA-Ng.Init293.run70.water3.chk
%nprocshared=20
%mem=10GB
%nosave
#b3lyp/svp scf=(tight,noincore,xqc) Test 
#IOP(5/87=12) Density=Current Pop=(MK,readradii) iop(6/33=2) iop(6/42=6)

loop4.apoCaM-CA-Ng.Init293.run70.water3 

   -3  1 
   C     62.24000000    54.73000000    56.00000000
   C     61.31000000    53.54000000    55.84000000
   O     60.46000000    53.57000000    54.95000000
   H     63.16000000    54.54900000    55.44500000
   H     61.75400000    55.62600000    55.61400000
   H     62.47500000    54.86900000    57.05500000
   N     61.46000000    52.48000000    56.63000000
   C     60.70000000    51.25000000    56.76000000
   C     60.54000000    50.38000000    55.52000000
   O     60.05000000    49.26000000    55.63000000
   C     59.44000000    51.42000000    57.61000000
   C     58.33000000    52.23000000    56.97000000
   O     58.10000000    52.18000000    55.74000000
   O     57.62000000    52.94000000    57.71000000
   H     62.18000000    52.52000000    57.33000000
   H     61.35000000    50.59000000    57.34000000
   H     59.78000000    51.94000000    58.51000000
   H     58.99000000    50.45000000    57.84000000
   N     60.96000000    50.88000000    54.35000000
   C     60.66000000    50.15000000    53.14000000
   C     59.22000000    50.28000000    52.65000000
   O     58.61000000    51.33000000    52.84000000
   C     61.62000000    50.44000000    52.00000000
   C     63.07000000    50.19000000    52.40000000
   C     61.45000000    51.79000000    51.31000000
   C     64.05000000    49.89000000    51.26000000
   H     61.06000000    51.89000000    54.31000000
   H     60.75000000    49.08000000    53.35000000
   H     61.49000000    49.68000000    51.22000000
   H     63.06000000    49.45000000    53.19000000
   H     63.39000000    51.14000000    52.84000000
   H     62.25000000    52.08000000    50.63000000
   H     60.52000000    51.76000000    50.75000000
   H     61.50000000    52.55000000    52.10000000
   H     64.14000000    50.81000000    50.69000000
   H     65.01000000    49.68000000    51.75000000
   H     63.77000000    48.95000000    50.79000000
   N     58.67000000    49.25000000    52.00000000
   C     57.37000000    49.21000000    51.36000000
   C     56.29000000    49.39000000    52.41000000
   O     56.42000000    48.76000000    53.46000000
   C     57.09000000    47.94000000    50.56000000
   C     57.35000000    46.67000000    51.37000000
   O     56.47000000    46.13000000    52.08000000
   O     58.48000000    46.15000000    51.34000000
   H     59.26000000    48.44000000    51.90000000
   H     57.36000000    50.10000000    50.73000000
   H     57.77000000    47.88000000    49.71000000
   H     56.07000000    47.95000000    50.18000000
   N     55.23000000    50.17000000    52.21000000
   C     54.93000000    50.97000000    51.04000000
   C     55.49000000    52.39000000    51.07000000
   O     56.11000000    52.81000000    52.05000000
   H     54.36000000    50.00000000    52.70000000
   H     53.84000000    50.94000000    51.04000000
   H     55.18000000    50.46000000    50.12000000
   N     55.45000000    53.14000000    49.97000000
   C     55.05000000    52.86000000    48.61000000
   C     55.76000000    53.65000000    47.52000000
   O     55.85000000    54.87000000    47.58000000
   C     53.57000000    53.23000000    48.54000000
   C     53.04000000    52.98000000    47.14000000
   O     52.79000000    53.95000000    46.39000000
   O     52.88000000    51.81000000    46.75000000
   H     56.03000000    53.97000000    49.99000000
   H     55.03000000    51.78000000    48.47000000
   H     53.28000000    54.21000000    48.93000000
   H     53.11000000    52.58000000    49.29000000
   N     56.43000000    53.04000000    46.53000000
   C     56.53000000    51.61000000    46.35000000
   C     57.48000000    51.21000000    45.22000000
   O     57.39000000    50.06000000    44.79000000
   H     56.84000000    53.71000000    45.89000000
   H     55.58000000    51.15000000    46.10000000
   H     56.89000000    51.15000000    47.27000000
   N     58.31000000    52.08000000    44.64000000
   C     59.20000000    51.84000000    43.53000000
   C     60.70000000    51.93000000    43.78000000
   O     61.50000000    51.82000000    42.85000000
   C     58.87000000    52.69000000    42.30000000
   C     58.99000000    54.17000000    42.61000000
   C     57.58000000    54.72000000    42.83000000
   N     57.38000000    55.36000000    43.98000000
   O     56.77000000    54.85000000    41.92000000
   H     58.54000000    52.79000000    45.33000000
   H     59.07000000    50.79000000    43.27000000
   H     57.88000000    52.35000000    41.96000000
   H     59.61000000    52.46000000    41.54000000
   H     59.41000000    54.72000000    41.77000000
   H     59.65000000    54.40000000    43.45000000
   H     58.07000000    55.36000000    44.72000000
   H     56.54000000    55.93000000    44.03000000
   N     61.10000000    52.01000000    45.05000000
   C     62.46000000    52.03000000    45.54000000
   C     62.67000000    53.22000000    46.46000000
   O     61.95000000    53.33000000    47.46000000
   C     63.03000000    50.72000000    46.09000000
   C     63.00000000    49.62000000    45.03000000
   C     62.19000000    50.09000000    47.19000000
   H     60.51000000    52.03000000    45.87000000
   H     63.15000000    52.21000000    44.71000000
   H     64.04000000    50.82000000    46.49000000
   H     62.00000000    49.26000000    44.77000000
   H     63.52000000    50.14000000    44.23000000
   H     63.59000000    48.81000000    45.45000000
   H     61.19000000    49.88000000    46.79000000
   H     62.56000000    49.12000000    47.52000000
   H     62.08000000    50.80000000    48.01000000
   N     63.53000000    54.18000000    46.11000000
   C     63.74000000    55.44000000    46.81000000
   C     62.92000000    56.63000000    46.32000000
   O     62.73000000    57.60000000    47.05000000
   C     65.22000000    55.80000000    46.71000000
   C     65.61000000    56.94000000    47.64000000
   N     66.22000000    58.02000000    47.13000000
   O     65.26000000    56.97000000    48.82000000
   H     64.01000000    54.09000000    45.23000000
   H     63.56000000    55.33000000    47.88000000
   H     65.55000000    56.08000000    45.71000000
   H     65.87000000    54.97000000    46.99000000
   H     66.25000000    58.02000000    46.12000000
   H     66.44000000    58.86000000    47.64000000
   N     62.38000000    56.62000000    45.11000000
   C     61.41000000    57.60000000    44.65000000
   C     60.09000000    57.43000000    45.38000000
   O     59.58000000    56.33000000    45.59000000
   C     61.24000000    57.49000000    43.14000000
   C     60.39000000    58.60000000    42.56000000
   C     60.79000000    59.94000000    42.71000000
   C     59.26000000    58.35000000    41.77000000
   C     59.99000000    60.98000000    42.22000000
   C     58.43000000    59.35000000    41.24000000
   C     58.81000000    60.68000000    41.51000000
   O     57.92000000    61.67000000    41.20000000
   H     62.52000000    55.84000000    44.49000000
   H     61.90000000    58.56000000    44.82000000
   H     60.79000000    56.53000000    42.89000000
   H     62.21000000    57.64000000    42.67000000
   H     61.66000000    60.08000000    43.32000000
   H     58.96000000    57.35000000    41.50000000
   H     60.29000000    62.00000000    42.42000000
   H     57.51000000    59.21000000    40.69000000
   H     58.25000000    62.50000000    41.54000000
   N     59.64000000    58.56000000    45.92000000
   C     58.52000000    58.61000000    46.85000000
   C     58.65000000    57.99000000    48.23000000
   O     57.71000000    58.08000000    49.02000000
   C     57.15000000    58.36000000    46.23000000
   C     56.90000000    58.81000000    44.79000000
   C     55.49000000    58.36000000    44.45000000
   O     55.21000000    57.17000000    44.22000000
   O     54.56000000    59.18000000    44.27000000
   H     60.18000000    59.41000000    45.84000000
   H     58.45000000    59.66000000    47.12000000
   H     56.33000000    58.70000000    46.86000000
   H     57.03000000    57.28000000    46.23000000
   H     57.63000000    58.39000000    44.10000000
   H     56.89000000    59.90000000    44.70000000
   N     59.78000000    57.36000000    48.56000000
   C     60.33000000    57.51000000    49.89000000
   C     60.93000000    58.90000000    50.04000000
   O     60.79000000    59.43000000    51.14000000
   C     61.41000000    56.51000000    50.29000000
   C     60.98000000    55.04000000    50.32000000
   C     59.79000000    54.90000000    51.26000000
   O     58.80000000    54.21000000    50.95000000
   O     59.75000000    55.55000000    52.33000000
   H     60.51000000    57.27000000    47.86000000
   H     59.49000000    57.56000000    50.59000000
   H     61.80000000    56.80000000    51.26000000
   H     62.19000000    56.63000000    49.53000000
   H     61.83000000    54.41000000    50.57000000
   H     60.57000000    54.81000000    49.34000000
   N     61.50000000    59.50000000    48.99000000
   C     61.89000000    60.89000000    49.09000000
   H     62.83800000    61.03900000    48.57300000
   H     61.12500000    61.51700000    48.63200000
   H     62.00200000    61.16200000    50.14000000
   H     61.63000000    58.96000000    48.15000000
  Ca     58.12000000    53.80000000    53.56000000
   O     56.28000000    55.69000000    52.97000000
   H     55.41000000    55.63000000    53.37000000
   H     56.15000000    56.20000000    52.17000000
   O     58.32000000    55.58000000    55.51000000
   H     57.99000000    55.65000000    56.41000000
   H     58.66000000    56.45000000    55.31000000
   O     55.61000000    53.57000000    55.10000000
   H     55.61000000    53.48000000    56.06000000
   H     54.90000000    54.18000000    54.92000000

Ca 1.00



