%chk=loop1.apoCaM-CA-Ng.Init293.run64.water5.chk
%nprocshared=20
%mem=10GB
%nosave
#b3lyp/svp scf=(tight,noincore,xqc) Test 
#IOP(5/87=12) Density=Current Pop=(MK,readradii) iop(6/33=2) iop(6/42=6)

loop1.apoCaM-CA-Ng.Init293.run64.water5 

   0  1 
   C     91.46000000    77.91000000    51.70000000
   C     92.95000000    77.98000000    52.04000000
   O     93.80000000    78.38000000    51.25000000
   H     90.93300000    78.71600000    52.21000000
   H     91.32700000    78.01400000    50.62300000
   H     91.05700000    76.95100000    52.02500000
   N     93.26000000    77.65000000    53.29000000
   C     94.55000000    77.80000000    53.95000000
   C     95.35000000    76.52000000    54.10000000
   O     96.39000000    76.50000000    54.76000000
   C     94.34000000    78.33000000    55.37000000
   C     93.45000000    77.49000000    56.27000000
   O     92.22000000    77.39000000    56.08000000
   O     94.04000000    76.92000000    57.21000000
   H     92.48000000    77.59000000    53.93000000
   H     95.21000000    78.40000000    53.33000000
   H     93.79000000    79.26000000    55.18000000
   H     95.29000000    78.52000000    55.86000000
   N     94.98000000    75.46000000    53.38000000
   C     95.57000000    74.14000000    53.31000000
   C     96.28000000    73.87000000    51.99000000
   O     95.80000000    74.21000000    50.91000000
   C     94.71000000    72.95000000    53.73000000
   C     93.77000000    73.26000000    54.88000000
   C     94.58000000    73.57000000    56.13000000
   C     93.66000000    73.70000000    57.34000000
   N     92.52000000    74.63000000    57.23000000
   H     94.11000000    75.64000000    52.90000000
   H     96.30000000    74.22000000    54.12000000
   H     95.49000000    72.27000000    54.08000000
   H     94.18000000    72.52000000    52.88000000
   H     93.09000000    72.42000000    55.04000000
   H     93.17000000    74.13000000    54.63000000
   H     95.08000000    74.53000000    55.97000000
   H     95.40000000    72.87000000    56.27000000
   H     94.24000000    74.02000000    58.20000000
   H     93.23000000    72.74000000    57.62000000
   H     92.89000000    75.55000000    57.07000000
   H     91.75000000    74.36000000    56.63000000
   H     91.98000000    74.65000000    58.08000000
   N     97.50000000    73.34000000    51.91000000
   C     98.28000000    72.96000000    53.07000000
   C     98.78000000    74.20000000    53.80000000
   O     98.57000000    74.21000000    55.01000000
   C     99.37000000    72.00000000    52.62000000
   C    100.28000000    71.73000000    53.82000000
   O     99.72000000    71.45000000    54.90000000
   O    101.53000000    71.80000000    53.77000000
   H     97.93000000    73.58000000    51.02000000
   H     97.64000000    72.31000000    53.68000000
   H    100.01000000    72.44000000    51.86000000
   H     99.03000000    71.02000000    52.29000000
   N     99.33000000    75.24000000    53.17000000
   C     99.73000000    75.35000000    51.78000000
   C    100.45000000    76.67000000    51.53000000
   O    101.66000000    76.76000000    51.75000000
   H     99.38000000    76.06000000    53.76000000
   H     98.88000000    75.38000000    51.09000000
   H    100.46000000    74.56000000    51.56000000
   N     99.89000000    77.66000000    50.84000000
   C     98.52000000    77.94000000    50.48000000
   C     98.05000000    79.36000000    50.80000000
   O     98.82000000    80.31000000    50.74000000
   C     98.26000000    77.59000000    49.02000000
   C     98.68000000    76.17000000    48.64000000
   O     97.80000000    75.29000000    48.68000000
   O     99.85000000    76.07000000    48.19000000
   H    100.56000000    78.41000000    50.71000000
   H     97.97000000    77.23000000    51.09000000
   H     98.75000000    78.34000000    48.39000000
   H     97.20000000    77.69000000    48.80000000
   N     96.78000000    79.53000000    51.16000000
   C     96.19000000    80.86000000    51.24000000
   C     95.58000000    81.46000000    49.98000000
   O     95.85000000    82.62000000    49.68000000
   H     96.16000000    78.74000000    51.28000000
   H     96.90000000    81.58000000    51.64000000
   H     95.35000000    80.72000000    51.91000000
   N     95.02000000    80.59000000    49.14000000
   C     94.70000000    80.88000000    47.76000000
   C     93.88000000    79.78000000    47.09000000
   O     94.16000000    78.59000000    47.21000000
   C     95.91000000    81.18000000    46.89000000
   C     95.82000000    81.07000000    45.37000000
   O     96.97000000    80.29000000    47.19000000
   H     95.22000000    79.62000000    49.38000000
   H     94.14000000    81.81000000    47.75000000
   H     96.25000000    82.19000000    47.12000000
   H     97.78000000    80.80000000    47.12000000
   H     96.71000000    81.54000000    44.96000000
   H     95.73000000    80.01000000    45.12000000
   H     94.94000000    81.60000000    44.99000000
   N     92.88000000    80.16000000    46.29000000
   C     91.93000000    79.20000000    45.78000000
   C     91.80000000    79.34000000    44.27000000
   O     91.37000000    80.41000000    43.84000000
   C     90.61000000    79.08000000    46.53000000
   C     89.52000000    78.25000000    45.86000000
   C     90.15000000    80.43000000    47.07000000
   C     89.94000000    76.80000000    45.68000000
   H     92.63000000    81.13000000    46.12000000
   H     92.39000000    78.21000000    45.89000000
   H     90.81000000    78.53000000    47.45000000
   H     89.30000000    78.74000000    44.91000000
   H     88.53000000    78.28000000    46.32000000
   H     89.11000000    80.45000000    47.39000000
   H     90.72000000    80.67000000    47.97000000
   H     90.17000000    81.19000000    46.29000000
   H     89.14000000    76.11000000    45.44000000
   H     90.67000000    76.72000000    44.88000000
   H     90.44000000    76.45000000    46.59000000
   N     92.26000000    78.41000000    43.43000000
   C     92.31000000    78.41000000    41.98000000
   C     91.71000000    77.19000000    41.30000000
   O     91.20000000    77.28000000    40.19000000
   C     93.77000000    78.69000000    41.62000000
   C     94.06000000    79.02000000    40.16000000
   O     94.61000000    77.58000000    41.85000000
   H     92.56000000    77.55000000    43.87000000
   H     91.75000000    79.27000000    41.62000000
   H     94.18000000    79.36000000    42.37000000
   H     95.50000000    77.92000000    41.79000000
   H     93.94000000    78.21000000    39.43000000
   H     93.43000000    79.86000000    39.89000000
   H     95.05000000    79.45000000    40.05000000
   N     91.64000000    76.06000000    42.01000000
   C     91.04000000    74.81000000    41.59000000
   C     91.79000000    74.18000000    40.42000000
   O     92.41000000    74.89000000    39.63000000
   C     89.53000000    74.88000000    41.36000000
   C     88.88000000    75.46000000    42.61000000
   O     88.95000000    73.63000000    41.03000000
   H     91.97000000    76.04000000    42.96000000
   H     91.15000000    74.03000000    42.35000000
   H     89.28000000    75.53000000    40.51000000
   H     88.24000000    73.49000000    41.66000000
   H     89.30000000    76.44000000    42.81000000
   H     87.81000000    75.63000000    42.44000000
   H     89.15000000    74.81000000    43.44000000
   N     91.86000000    72.86000000    40.52000000
   C     92.72000000    71.98000000    39.75000000
   C     93.66000000    71.09000000    40.55000000
   O     94.67000000    70.85000000    39.88000000
   C     91.85000000    71.30000000    38.70000000
   C     91.06000000    72.20000000    37.74000000
   C     91.88000000    73.00000000    36.75000000
   C     91.01000000    73.25000000    35.52000000
   N     89.84000000    74.05000000    35.90000000
   H     91.25000000    72.44000000    41.20000000
   H     93.41000000    72.65000000    39.23000000
   H     91.05000000    70.80000000    39.25000000
   H     92.44000000    70.60000000    38.11000000
   H     90.33000000    72.85000000    38.22000000
   H     90.40000000    71.55000000    37.16000000
   H     92.69000000    72.38000000    36.35000000
   H     92.39000000    73.87000000    37.17000000
   H     90.67000000    72.27000000    35.18000000
   H     91.54000000    73.86000000    34.78000000
   H     89.08000000    73.58000000    36.37000000
   H     90.15000000    74.82000000    36.47000000
   H     89.48000000    74.41000000    35.02000000
   N     93.52000000    70.63000000    41.79000000
   C     92.61000000    70.89000000    42.88000000
   C     91.09000000    70.89000000    42.70000000
   O     90.36000000    71.81000000    43.06000000
   C     93.16000000    72.03000000    43.72000000
   C     92.66000000    72.03000000    45.16000000
   C     93.57000000    72.79000000    46.11000000
   O     93.39000000    74.01000000    46.31000000
   O     94.49000000    72.17000000    46.69000000
   H     94.15000000    69.85000000    41.91000000
   H     92.86000000    70.04000000    43.52000000
   H     93.16000000    73.00000000    43.23000000
   H     94.25000000    71.92000000    43.74000000
   H     92.53000000    71.04000000    45.60000000
   H     91.67000000    72.47000000    45.28000000
   N     90.59000000    69.90000000    41.96000000
   C     89.18000000    69.75000000    41.66000000
   H     88.64500000    70.64800000    41.97100000
   H     89.05000000    69.60300000    40.58800000
   H     88.78400000    68.88800000    42.19600000
   H     91.21000000    69.28000000    41.45000000
  Ca     95.43000000    74.26000000    48.12000000
   O     93.28000000    73.41000000    49.47000000
   H     92.74000000    72.62000000    49.47000000
   H     92.76000000    74.06000000    49.94000000
   O     95.90000000    76.27000000    46.64000000
   H     95.24000000    76.94000000    46.83000000
   H     96.67000000    76.77000000    46.35000000
   O     93.91000000    76.46000000    48.85000000
   H     93.80000000    77.29000000    48.37000000
   H     93.50000000    76.62000000    49.70000000
   O     97.48000000    73.40000000    46.31000000
   H     97.06000000    73.61000000    45.48000000
   H     98.39000000    73.66000000    46.20000000
   O     96.32000000    71.82000000    49.15000000
   H     96.05000000    71.21000000    49.84000000
   H     96.96000000    71.34000000    48.63000000

Ca 1.00



