%chk=loop1.apoCaM-CA-Ng.Init295.run7.water6.chk
%nprocshared=20
%mem=10GB
%nosave
#b3lyp/svp scf=(tight,noincore,xqc) Test 
#IOP(5/87=12) Density=Current Pop=(MK,readradii) iop(6/33=2) iop(6/42=6)

loop1.apoCaM-CA-Ng.Init295.run7.water6 

   0  1 
   C     43.18000000    43.70000000    42.61000000
   C     44.24000000    44.40000000    41.77000000
   O     45.17000000    43.74000000    41.31000000
   H     42.26300000    43.60300000    42.02900000
   H     43.53600000    42.71000000    42.89400000
   H     42.98100000    44.28600000    43.50700000
   N     44.11000000    45.72000000    41.60000000
   C     44.82000000    46.69000000    40.78000000
   C     44.81000000    46.30000000    39.31000000
   O     45.70000000    46.53000000    38.50000000
   C     46.18000000    46.94000000    41.42000000
   C     46.90000000    48.13000000    40.79000000
   O     46.37000000    49.26000000    40.90000000
   O     48.06000000    48.07000000    40.33000000
   H     43.30000000    46.11000000    42.05000000
   H     44.22000000    47.58000000    40.95000000
   H     46.77000000    46.02000000    41.40000000
   H     46.21000000    47.18000000    42.48000000
   N     43.70000000    45.66000000    38.93000000
   C     43.58000000    44.86000000    37.73000000
   C     43.52000000    45.61000000    36.41000000
   O     43.81000000    45.05000000    35.35000000
   C     42.51000000    43.78000000    37.81000000
   C     42.55000000    42.72000000    38.91000000
   C     41.46000000    41.67000000    38.68000000
   C     40.07000000    42.23000000    38.94000000
   N     39.12000000    41.11000000    39.04000000
   H     43.00000000    45.65000000    39.66000000
   H     44.52000000    44.32000000    37.65000000
   H     42.47000000    43.27000000    36.85000000
   H     41.53000000    44.24000000    37.92000000
   H     42.37000000    43.24000000    39.85000000
   H     43.55000000    42.29000000    38.94000000
   H     41.53000000    40.78000000    39.30000000
   H     41.51000000    41.35000000    37.64000000
   H     39.80000000    42.92000000    38.14000000
   H     40.04000000    42.78000000    39.88000000
   H     39.21000000    40.55000000    39.87000000
   H     38.17000000    41.42000000    38.91000000
   H     39.25000000    40.62000000    38.16000000
   N     43.26000000    46.92000000    36.47000000
   C     43.31000000    47.85000000    35.37000000
   C     44.57000000    48.69000000    35.54000000
   O     45.14000000    49.17000000    34.56000000
   C     42.08000000    48.75000000    35.50000000
   C     41.88000000    49.68000000    34.31000000
   O     40.78000000    50.28000000    34.35000000
   O     42.55000000    49.62000000    33.26000000
   H     43.03000000    47.31000000    37.37000000
   H     43.28000000    47.27000000    34.45000000
   H     42.16000000    49.28000000    36.45000000
   H     41.18000000    48.14000000    35.63000000
   N     45.12000000    48.83000000    36.74000000
   C     46.34000000    49.58000000    37.00000000
   C     46.19000000    51.09000000    36.98000000
   O     47.21000000    51.76000000    37.17000000
   H     44.82000000    48.22000000    37.49000000
   H     47.06000000    49.36000000    36.21000000
   H     46.71000000    49.31000000    37.99000000
   N     44.97000000    51.62000000    36.94000000
   C     44.53000000    53.00000000    36.99000000
   C     43.59000000    53.50000000    38.08000000
   O     42.79000000    52.74000000    38.63000000
   C     43.93000000    53.27000000    35.61000000
   C     44.80000000    52.85000000    34.43000000
   O     45.98000000    53.23000000    34.52000000
   O     44.32000000    52.23000000    33.45000000
   H     44.30000000    50.87000000    36.96000000
   H     45.36000000    53.68000000    37.17000000
   H     43.85000000    54.35000000    35.56000000
   H     42.95000000    52.85000000    35.40000000
   N     43.58000000    54.80000000    38.36000000
   C     42.96000000    55.48000000    39.48000000
   C     43.44000000    55.04000000    40.85000000
   O     43.70000000    55.88000000    41.72000000
   H     44.26000000    55.37000000    37.88000000
   H     41.88000000    55.31000000    39.46000000
   H     43.26000000    56.51000000    39.30000000
   N     43.49000000    53.75000000    41.16000000
   C     44.05000000    53.31000000    42.42000000
   C     43.13000000    53.60000000    43.59000000
   O     41.92000000    53.70000000    43.39000000
   C     44.44000000    51.83000000    42.42000000
   C     43.37000000    50.77000000    42.15000000
   O     45.21000000    51.60000000    41.26000000
   H     43.18000000    53.00000000    40.55000000
   H     44.96000000    53.86000000    42.67000000
   H     44.98000000    51.54000000    43.32000000
   H     45.76000000    50.81000000    41.34000000
   H     43.75000000    49.76000000    42.00000000
   H     42.67000000    50.79000000    42.99000000
   H     42.70000000    51.08000000    41.35000000
   N     43.62000000    53.70000000    44.83000000
   C     42.82000000    53.99000000    46.00000000
   C     43.29000000    55.22000000    46.76000000
   O     42.52000000    55.78000000    47.55000000
   C     42.60000000    52.78000000    46.90000000
   C     43.95000000    52.16000000    47.23000000
   C     41.65000000    51.83000000    46.17000000
   C     43.83000000    51.25000000    48.45000000
   H     44.63000000    53.68000000    44.86000000
   H     41.79000000    54.19000000    45.70000000
   H     42.06000000    53.05000000    47.81000000
   H     44.70000000    52.90000000    47.51000000
   H     44.26000000    51.63000000    46.33000000
   H     42.11000000    51.25000000    45.37000000
   H     41.23000000    51.18000000    46.94000000
   H     40.72000000    52.31000000    45.85000000
   H     43.20000000    50.39000000    48.22000000
   H     44.79000000    50.95000000    48.86000000
   H     43.33000000    51.72000000    49.29000000
   N     44.54000000    55.65000000    46.60000000
   C     45.13000000    56.90000000    47.04000000
   C     46.58000000    56.63000000    47.43000000
   O     47.34000000    56.01000000    46.68000000
   C     44.94000000    57.96000000    45.97000000
   C     45.37000000    57.44000000    44.60000000
   O     43.62000000    58.42000000    45.77000000
   H     45.01000000    55.19000000    45.82000000
   H     44.60000000    57.17000000    47.96000000
   H     45.51000000    58.87000000    46.17000000
   H     43.12000000    57.60000000    45.82000000
   H     46.44000000    57.30000000    44.51000000
   H     44.81000000    56.59000000    44.19000000
   H     45.24000000    58.29000000    43.94000000
   N     47.12000000    57.35000000    48.42000000
   C     48.52000000    57.43000000    48.77000000
   C     48.65000000    57.17000000    50.26000000
   O     49.21000000    56.18000000    50.71000000
   C     49.26000000    58.63000000    48.18000000
   C     50.72000000    58.80000000    48.57000000
   O     48.60000000    59.75000000    48.72000000
   H     46.49000000    57.99000000    48.89000000
   H     48.99000000    56.52000000    48.40000000
   H     49.16000000    58.55000000    47.09000000
   H     48.08000000    60.20000000    48.05000000
   H     51.08000000    59.70000000    48.07000000
   H     50.71000000    58.95000000    49.65000000
   H     51.27000000    57.97000000    48.13000000
   N     48.22000000    58.13000000    51.09000000
   C     48.49000000    58.17000000    52.51000000
   C     47.42000000    58.92000000    53.29000000
   O     47.01000000    60.01000000    52.88000000
   C     49.92000000    58.63000000    52.83000000
   C     50.19000000    60.03000000    52.29000000
   C     50.06000000    61.21000000    53.24000000
   C     51.12000000    61.14000000    54.33000000
   N     50.79000000    62.00000000    55.48000000
   H     47.90000000    58.95000000    50.59000000
   H     48.38000000    57.14000000    52.86000000
   H     50.62000000    57.91000000    52.41000000
   H     50.12000000    58.60000000    53.90000000
   H     49.62000000    60.28000000    51.39000000
   H     51.22000000    60.01000000    51.94000000
   H     49.14000000    61.11000000    53.82000000
   H     50.14000000    62.13000000    52.66000000
   H     52.04000000    61.48000000    53.86000000
   H     51.12000000    60.09000000    54.64000000
   H     50.59000000    62.94000000    55.19000000
   H     49.94000000    61.62000000    55.87000000
   H     51.50000000    62.02000000    56.20000000
   N     46.97000000    58.50000000    54.47000000
   C     46.07000000    59.26000000    55.30000000
   C     44.61000000    58.98000000    54.95000000
   O     43.75000000    59.81000000    55.24000000
   C     46.26000000    58.90000000    56.77000000
   C     47.61000000    59.25000000    57.39000000
   C     47.75000000    60.76000000    57.46000000
   O     48.88000000    61.25000000    57.24000000
   O     46.87000000    61.46000000    58.01000000
   H     47.44000000    57.63000000    54.71000000
   H     46.25000000    60.34000000    55.23000000
   H     46.13000000    57.84000000    56.96000000
   H     45.55000000    59.40000000    57.43000000
   H     48.41000000    58.72000000    56.87000000
   H     47.60000000    58.79000000    58.38000000
   N     44.16000000    57.96000000    54.22000000
   C     44.80000000    56.84000000    53.57000000
   H     45.78500000    56.68100000    54.00800000
   H     44.19300000    55.94500000    53.70700000
   H     44.90600000    57.04900000    52.50500000
   H     43.22000000    58.11000000    53.88000000
  Ca     44.85000000    50.17000000    31.98000000
   O     44.91000000    52.46000000    30.48000000
   H     44.48000000    52.71000000    29.66000000
   H     45.72000000    52.97000000    30.49000000
   O     47.39000000    51.74000000    33.02000000
   H     48.21000000    51.70000000    33.51000000
   H     46.84000000    52.34000000    33.53000000
   O     42.68000000    49.97000000    30.49000000
   H     42.17000000    50.49000000    29.88000000
   H     42.03000000    49.53000000    31.04000000
   O     45.52000000    49.47000000    29.49000000
   H     45.34000000    49.61000000    28.55000000
   H     46.26000000    48.86000000    29.51000000
   O     44.27000000    47.49000000    32.03000000
   H     44.71000000    46.69000000    31.75000000
   H     43.34000000    47.24000000    32.08000000
   O     46.95000000    48.17000000    32.60000000
   H     47.70000000    48.17000000    33.19000000
   H     46.41000000    47.43000000    32.89000000

Ca 1.00



