%chk=loop3.apoCaM-CA-Ng.Init293.run51.water5.chk
%nprocshared=20
%mem=10GB
%nosave
#b3lyp/svp scf=(tight,noincore,xqc) Test 
#IOP(5/87=12) Density=Current Pop=(MK,readradii) iop(6/33=2) iop(6/42=6)

loop3.apoCaM-CA-Ng.Init293.run51.water5 

   0  1 
   C     51.25000000    67.25000000    67.19000000
   C     52.39000000    66.54000000    66.47000000
   O     53.39000000    66.20000000    67.09000000
   H     50.36400000    66.61600000    67.18000000
   H     51.54000000    67.45100000    68.22100000
   H     51.02900000    68.19000000    66.68400000
   N     52.25000000    66.33000000    65.16000000
   C     53.07000000    65.51000000    64.30000000
   C     52.39000000    64.22000000    63.84000000
   O     51.17000000    64.08000000    63.77000000
   C     53.53000000    66.38000000    63.13000000
   C     54.80000000    65.96000000    62.42000000
   O     54.94000000    66.39000000    61.26000000
   O     55.60000000    65.13000000    62.92000000
   H     51.55000000    66.91000000    64.72000000
   H     53.97000000    65.24000000    64.85000000
   H     53.75000000    67.39000000    63.49000000
   H     52.66000000    66.39000000    62.48000000
   N     53.17000000    63.19000000    63.51000000
   C     52.84000000    62.00000000    62.76000000
   C     52.56000000    62.08000000    61.26000000
   O     52.37000000    63.12000000    60.64000000
   C     51.88000000    61.09000000    63.51000000
   C     52.26000000    60.88000000    64.97000000
   C     53.62000000    60.20000000    65.13000000
   C     53.88000000    59.70000000    66.54000000
   N     52.88000000    58.67000000    66.89000000
   H     54.14000000    63.47000000    63.53000000
   H     53.81000000    61.51000000    62.63000000
   H     51.77000000    60.14000000    63.00000000
   H     50.92000000    61.61000000    63.49000000
   H     51.51000000    60.41000000    65.61000000
   H     52.48000000    61.86000000    65.41000000
   H     54.38000000    60.92000000    64.82000000
   H     53.63000000    59.33000000    64.47000000
   H     53.85000000    60.53000000    67.25000000
   H     54.82000000    59.16000000    66.69000000
   H     53.26000000    58.15000000    67.67000000
   H     51.98000000    59.05000000    67.14000000
   H     52.82000000    58.12000000    66.05000000
   N     52.53000000    60.92000000    60.59000000
   C     52.61000000    60.84000000    59.14000000
   C     51.27000000    61.05000000    58.45000000
   O     50.25000000    60.81000000    59.09000000
   C     53.25000000    59.55000000    58.63000000
   C     52.86000000    58.37000000    59.52000000
   O     53.69000000    57.95000000    60.36000000
   O     51.85000000    57.68000000    59.26000000
   H     52.72000000    60.15000000    61.21000000
   H     53.23000000    61.67000000    58.81000000
   H     54.33000000    59.69000000    58.60000000
   H     53.06000000    59.37000000    57.57000000
   N     51.26000000    61.25000000    57.13000000
   C     50.06000000    61.34000000    56.33000000
   C     49.55000000    60.01000000    55.81000000
   O     50.30000000    59.16000000    55.33000000
   H     52.16000000    61.29000000    56.69000000
   H     50.27000000    61.94000000    55.44000000
   H     49.25000000    61.82000000    56.88000000
   N     48.26000000    59.73000000    56.01000000
   C     47.58000000    58.55000000    55.51000000
   C     46.36000000    58.82000000    54.65000000
   O     45.41000000    58.04000000    54.70000000
   C     47.25000000    57.71000000    56.74000000
   C     48.50000000    57.48000000    57.59000000
   N     48.81000000    58.27000000    58.63000000
   O     49.37000000    56.68000000    57.27000000
   H     47.72000000    60.46000000    56.44000000
   H     48.28000000    58.05000000    54.84000000
   H     46.86000000    56.76000000    56.38000000
   H     46.58000000    58.16000000    57.47000000
   H     48.18000000    59.02000000    58.89000000
   H     49.69000000    58.13000000    59.09000000
   N     46.28000000    59.84000000    53.79000000
   C     45.49000000    59.81000000    52.57000000
   C     43.99000000    59.83000000    52.83000000
   O     43.50000000    60.84000000    53.33000000
   H     46.94000000    60.58000000    53.95000000
   H     45.77000000    58.89000000    52.05000000
   H     45.79000000    60.57000000    51.86000000
   N     43.28000000    58.75000000    52.52000000
   C     41.90000000    58.44000000    52.84000000
   C     41.53000000    58.48000000    54.31000000
   O     40.35000000    58.49000000    54.66000000
   C     40.95000000    59.12000000    51.86000000
   C     41.27000000    58.77000000    50.43000000
   C     40.89000000    57.51000000    49.93000000
   C     41.83000000    59.71000000    49.57000000
   C     40.94000000    57.19000000    48.57000000
   C     41.94000000    59.40000000    48.21000000
   C     41.38000000    58.21000000    47.70000000
   O     41.47000000    57.91000000    46.37000000
   H     43.85000000    58.13000000    51.96000000
   H     41.79000000    57.38000000    52.63000000
   H     41.09000000    60.18000000    52.07000000
   H     39.95000000    58.78000000    52.14000000
   H     40.57000000    56.76000000    50.64000000
   H     42.03000000    60.71000000    49.94000000
   H     40.77000000    56.20000000    48.17000000
   H     42.34000000    60.07000000    47.46000000
   H     41.74000000    58.66000000    45.84000000
   N     42.54000000    58.46000000    55.18000000
   C     42.47000000    58.39000000    56.63000000
   C     41.91000000    57.06000000    57.11000000
   O     42.51000000    56.37000000    57.93000000
   C     41.86000000    59.56000000    57.40000000
   C     42.57000000    60.87000000    57.05000000
   C     41.88000000    59.37000000    58.92000000
   C     44.09000000    60.84000000    57.18000000
   H     43.44000000    58.35000000    54.74000000
   H     43.53000000    58.37000000    56.88000000
   H     40.81000000    59.65000000    57.12000000
   H     42.11000000    61.65000000    57.66000000
   H     42.47000000    61.11000000    55.99000000
   H     41.32000000    58.50000000    59.28000000
   H     42.85000000    59.32000000    59.41000000
   H     41.34000000    60.25000000    59.26000000
   H     44.56000000    60.21000000    56.43000000
   H     44.52000000    61.82000000    56.96000000
   H     44.42000000    60.68000000    58.21000000
   N     40.77000000    56.62000000    56.57000000
   C     40.41000000    55.22000000    56.49000000
   C     40.16000000    54.56000000    57.84000000
   O     40.01000000    53.34000000    57.92000000
   C     39.27000000    54.92000000    55.52000000
   O     39.31000000    55.78000000    54.40000000
   H     40.21000000    57.20000000    55.97000000
   H     41.20000000    54.70000000    55.95000000
   H     38.33000000    55.22000000    55.96000000
   H     39.29000000    53.85000000    55.28000000
   H     38.43000000    56.15000000    54.55000000
   N     40.09000000    55.29000000    58.95000000
   C     39.91000000    54.77000000    60.29000000
   C     41.07000000    53.99000000    60.89000000
   O     40.90000000    53.32000000    61.90000000
   C     38.52000000    54.21000000    60.58000000
   H     40.15000000    56.29000000    58.78000000
   H     39.76000000    55.61000000    60.97000000
   H     38.50000000    53.80000000    61.59000000
   H     37.77000000    55.00000000    60.56000000
   H     38.29000000    53.41000000    59.88000000
   N     42.27000000    54.14000000    60.33000000
   C     43.42000000    53.44000000    60.86000000
   C     44.31000000    54.39000000    61.66000000
   O     44.21000000    55.61000000    61.66000000
   C     44.12000000    52.67000000    59.74000000
   H     42.38000000    54.82000000    59.58000000
   H     43.03000000    52.71000000    61.56000000
   H     45.12000000    53.09000000    59.60000000
   H     43.95000000    51.60000000    59.87000000
   H     43.54000000    52.86000000    58.84000000
   N     45.24000000    53.77000000    62.39000000
   C     46.37000000    54.30000000    63.12000000
   C     46.00000000    55.16000000    64.32000000
   O     46.88000000    55.84000000    64.86000000
   C     47.35000000    54.92000000    62.13000000
   C     47.59000000    54.19000000    60.82000000
   C     48.81000000    54.61000000    60.02000000
   O     49.69000000    55.42000000    60.37000000
   O     49.09000000    54.03000000    58.94000000
   H     45.17000000    52.76000000    62.34000000
   H     46.99000000    53.51000000    63.55000000
   H     48.38000000    54.92000000    62.49000000
   H     47.04000000    55.95000000    61.95000000
   H     46.75000000    54.48000000    60.19000000
   H     47.65000000    53.11000000    60.99000000
   N     44.70000000    55.28000000    64.58000000
   C     43.98000000    56.06000000    65.57000000
   H     42.98800000    55.63200000    65.71800000
   H     44.52600000    56.04400000    66.51300000
   H     43.88300000    57.08900000    65.22300000
   H     44.07000000    54.65000000    64.10000000
  Ca     51.44000000    55.32000000    58.33000000
   O     51.08000000    54.56000000    55.70000000
   H     50.23000000    54.87000000    55.37000000
   H     51.55000000    54.29000000    54.92000000
   O     52.10000000    57.17000000    56.21000000
   H     52.52000000    57.27000000    55.35000000
   H     51.38000000    57.81000000    56.19000000
   O     54.00000000    55.03000000    57.65000000
   H     54.74000000    54.67000000    58.14000000
   H     54.40000000    55.63000000    57.02000000
   O     51.93000000    52.61000000    58.14000000
   H     52.41000000    52.15000000    57.44000000
   H     51.86000000    51.96000000    58.84000000
   O     53.16000000    54.92000000    60.37000000
   H     53.55000000    54.20000000    60.85000000
   H     53.79000000    55.63000000    60.44000000

Ca 1.00



