%chk=loop4.apoCaM-CA-Ng.Init293.run59.water3.chk
%nprocshared=20
%mem=10GB
%nosave
#b3lyp/svp scf=(tight,noincore,xqc) Test 
#IOP(5/87=12) Density=Current Pop=(MK,readradii) iop(6/33=2) iop(6/42=6)

loop4.apoCaM-CA-Ng.Init293.run59.water3 

   -3  1 
   C     42.93000000    57.59000000    81.13000000
   C     41.45000000    57.32000000    81.38000000
   O     40.85000000    57.94000000    82.26000000
   H     43.51500000    56.72600000    81.44500000
   H     43.09300000    57.77000000    80.06700000
   H     43.24100000    58.46600000    81.69900000
   N     40.95000000    56.33000000    80.64000000
   C     39.72000000    55.57000000    80.66000000
   C     38.40000000    56.32000000    80.81000000
   O     37.35000000    55.74000000    81.07000000
   C     39.95000000    54.42000000    81.64000000
   C     40.08000000    54.90000000    83.08000000
   O     39.42000000    55.86000000    83.52000000
   O     40.79000000    54.21000000    83.85000000
   H     41.56000000    56.07000000    79.88000000
   H     39.63000000    55.17000000    79.65000000
   H     40.81000000    53.83000000    81.33000000
   H     39.18000000    53.65000000    81.56000000
   N     38.43000000    57.65000000    80.81000000
   C     37.25000000    58.49000000    80.95000000
   C     36.78000000    58.58000000    82.39000000
   O     37.59000000    58.56000000    83.32000000
   C     37.54000000    59.88000000    80.38000000
   C     37.33000000    59.84000000    78.87000000
   C     38.96000000    60.23000000    80.78000000
   C     37.47000000    61.24000000    78.27000000
   H     39.32000000    58.08000000    80.58000000
   H     36.36000000    58.11000000    80.45000000
   H     36.89000000    60.66000000    80.78000000
   H     36.28000000    59.56000000    78.77000000
   H     38.02000000    59.13000000    78.41000000
   H     39.15000000    61.28000000    80.55000000
   H     39.04000000    60.18000000    81.87000000
   H     39.69000000    59.62000000    80.25000000
   H     36.90000000    61.95000000    78.87000000
   H     38.47000000    61.65000000    78.35000000
   H     37.10000000    61.29000000    77.25000000
   N     35.50000000    58.83000000    82.67000000
   C     34.96000000    58.67000000    84.01000000
   C     35.23000000    57.34000000    84.69000000
   O     35.30000000    56.32000000    84.00000000
   C     33.45000000    58.91000000    84.05000000
   C     32.65000000    58.09000000    83.04000000
   O     32.55000000    58.41000000    81.84000000
   O     32.20000000    57.00000000    83.45000000
   H     34.81000000    58.80000000    81.93000000
   H     35.45000000    59.49000000    84.54000000
   H     33.37000000    59.97000000    83.82000000
   H     33.12000000    58.68000000    85.06000000
   N     35.38000000    57.22000000    86.01000000
   C     35.44000000    58.34000000    86.94000000
   C     36.62000000    59.29000000    87.03000000
   O     37.61000000    58.99000000    86.35000000
   H     35.78000000    56.34000000    86.29000000
   H     35.49000000    57.81000000    87.89000000
   H     34.50000000    58.87000000    86.80000000
   N     36.68000000    60.36000000    87.82000000
   C     35.82000000    60.60000000    88.96000000
   C     34.36000000    60.86000000    88.62000000
   O     33.54000000    60.28000000    89.33000000
   C     36.34000000    61.73000000    89.84000000
   C     35.73000000    61.84000000    91.24000000
   O     34.97000000    62.79000000    91.52000000
   O     36.09000000    60.94000000    92.03000000
   H     37.55000000    60.87000000    87.84000000
   H     35.91000000    59.70000000    89.56000000
   H     36.18000000    62.66000000    89.30000000
   H     37.43000000    61.71000000    89.83000000
   N     33.97000000    61.62000000    87.59000000
   C     34.74000000    62.55000000    86.80000000
   C     33.87000000    63.46000000    85.94000000
   O     32.72000000    63.10000000    85.67000000
   H     33.01000000    61.52000000    87.30000000
   H     35.19000000    61.90000000    86.05000000
   H     35.53000000    63.06000000    87.36000000
   N     34.37000000    64.63000000    85.57000000
   C     33.71000000    65.70000000    84.84000000
   C     34.65000000    66.46000000    83.91000000
   O     34.64000000    67.69000000    83.89000000
   C     32.96000000    66.55000000    85.87000000
   C     33.69000000    67.55000000    86.76000000
   C     32.75000000    68.06000000    87.84000000
   N     33.17000000    69.03000000    88.64000000
   O     31.65000000    67.56000000    88.10000000
   H     35.33000000    64.81000000    85.85000000
   H     33.00000000    65.15000000    84.23000000
   H     32.45000000    65.80000000    86.47000000
   H     32.19000000    67.13000000    85.38000000
   H     34.02000000    68.39000000    86.15000000
   H     34.59000000    67.20000000    87.26000000
   H     33.93000000    69.64000000    88.39000000
   H     32.41000000    69.45000000    89.15000000
   N     35.55000000    65.79000000    83.20000000
   C     36.52000000    66.34000000    82.27000000
   C     37.96000000    65.97000000    82.59000000
   O     38.32000000    64.95000000    83.18000000
   C     36.17000000    65.89000000    80.86000000
   C     34.76000000    66.35000000    80.49000000
   C     36.28000000    64.41000000    80.52000000
   H     35.50000000    64.78000000    83.25000000
   H     36.40000000    67.42000000    82.19000000
   H     36.82000000    66.44000000    80.17000000
   H     34.64000000    66.23000000    79.41000000
   H     34.01000000    65.80000000    81.06000000
   H     34.71000000    67.43000000    80.61000000
   H     35.79000000    64.21000000    79.57000000
   H     37.32000000    64.10000000    80.41000000
   H     35.75000000    63.81000000    81.26000000
   N     38.93000000    66.82000000    82.26000000
   C     40.37000000    66.65000000    82.28000000
   C     40.98000000    66.73000000    83.67000000
   O     42.06000000    66.20000000    83.91000000
   C     40.90000000    67.69000000    81.29000000
   C     42.37000000    67.44000000    80.96000000
   N     43.27000000    68.31000000    81.43000000
   O     42.65000000    66.45000000    80.28000000
   H     38.60000000    67.64000000    81.76000000
   H     40.59000000    65.67000000    81.87000000
   H     40.80000000    68.68000000    81.73000000
   H     40.43000000    67.59000000    80.31000000
   H     43.06000000    69.03000000    82.10000000
   H     44.22000000    68.29000000    81.09000000
   N     40.18000000    67.11000000    84.67000000
   C     40.51000000    67.08000000    86.08000000
   C     40.71000000    65.65000000    86.57000000
   O     39.86000000    64.77000000    86.55000000
   C     39.42000000    67.80000000    86.87000000
   C     39.91000000    68.23000000    88.24000000
   C     40.87000000    69.24000000    88.25000000
   C     39.39000000    67.77000000    89.46000000
   C     41.37000000    69.73000000    89.46000000
   C     39.81000000    68.28000000    90.69000000
   C     40.81000000    69.28000000    90.68000000
   O     41.14000000    69.96000000    91.81000000
   H     39.25000000    67.42000000    84.43000000
   H     41.37000000    67.75000000    86.16000000
   H     38.49000000    67.24000000    86.87000000
   H     39.21000000    68.71000000    86.31000000
   H     41.24000000    69.62000000    87.31000000
   H     38.63000000    67.01000000    89.46000000
   H     42.18000000    70.44000000    89.43000000
   H     39.27000000    68.03000000    91.59000000
   H     41.94000000    70.48000000    91.88000000
   N     41.92000000    65.53000000    87.11000000
   C     42.62000000    64.34000000    87.56000000
   C     43.01000000    63.31000000    86.52000000
   O     43.74000000    62.37000000    86.85000000
   C     42.14000000    63.73000000    88.88000000
   C     42.07000000    64.66000000    90.08000000
   C     41.76000000    63.93000000    91.38000000
   O     42.63000000    63.89000000    92.28000000
   O     40.69000000    63.29000000    91.43000000
   H     42.37000000    66.43000000    87.20000000
   H     43.63000000    64.68000000    87.79000000
   H     42.91000000    62.98000000    89.06000000
   H     41.11000000    63.42000000    88.73000000
   H     41.27000000    65.39000000    89.91000000
   H     42.99000000    65.22000000    90.26000000
   N     42.76000000    63.58000000    85.24000000
   C     43.35000000    63.02000000    84.04000000
   C     44.65000000    63.71000000    83.66000000
   O     45.54000000    63.00000000    83.21000000
   C     42.42000000    62.72000000    82.87000000
   C     40.98000000    62.43000000    83.28000000
   C     40.73000000    61.20000000    84.15000000
   O     39.60000000    60.91000000    84.59000000
   O     41.59000000    60.30000000    84.26000000
   H     42.19000000    64.39000000    85.03000000
   H     43.67000000    62.02000000    84.35000000
   H     42.80000000    61.91000000    82.25000000
   H     42.41000000    63.65000000    82.29000000
   H     40.45000000    62.22000000    82.35000000
   H     40.49000000    63.28000000    83.74000000
   N     44.82000000    64.99000000    84.00000000
   C     46.09000000    65.68000000    84.13000000
   H     46.83200000    65.19700000    83.49500000
   H     45.97200000    66.72000000    83.82400000
   H     46.42100000    65.64100000    85.16800000
   H     44.03000000    65.47000000    84.39000000
  Ca     39.83000000    58.27000000    84.63000000
   O     40.95000000    59.16000000    86.82000000
   H     41.88000000    59.14000000    86.61000000
   H     40.79000000    60.07000000    87.10000000
   O     38.81000000    56.62000000    86.38000000
   H     38.93000000    55.68000000    86.22000000
   H     38.61000000    56.68000000    87.31000000
   O     41.77000000    56.52000000    85.04000000
   H     41.55000000    55.63000000    84.78000000
   H     42.72000000    56.57000000    84.94000000

Ca 1.00



