%chk=loop3.apoCaM-CA-Ng.Init295.run81.water4.chk
%nprocshared=20
%mem=10GB
%nosave
#b3lyp/svp scf=(tight,noincore,xqc) Test 
#IOP(5/87=12) Density=Current Pop=(MK,readradii) iop(6/33=2) iop(6/42=6)

loop3.apoCaM-CA-Ng.Init295.run81.water4 

   0  1 
   C    -10.13000000    74.72000000    69.47000000
   C    -10.74000000    73.52000000    70.18000000
   O    -11.36000000    72.68000000    69.53000000
   H     -9.13700000    74.45900000    69.10500000
   H    -10.76200000    75.00600000    68.62900000
   H    -10.05200000    75.55400000    70.16700000
   N    -10.50000000    73.42000000    71.49000000
   C    -10.87000000    72.29000000    72.32000000
   C    -11.39000000    72.74000000    73.68000000
   O    -10.83000000    73.61000000    74.34000000
   C     -9.66000000    71.36000000    72.43000000
   C     -9.81000000    70.16000000    73.35000000
   O     -8.80000000    69.44000000    73.49000000
   O    -10.89000000    69.87000000    73.91000000
   H    -10.30000000    74.31000000    71.91000000
   H    -11.68000000    71.70000000    71.89000000
   H     -8.89000000    72.02000000    72.83000000
   H     -9.51000000    70.90000000    71.45000000
   N    -12.50000000    72.11000000    74.07000000
   C    -13.31000000    72.39000000    75.24000000
   C    -12.69000000    72.04000000    76.59000000
   O    -13.31000000    72.44000000    77.57000000
   C    -14.63000000    71.67000000    75.02000000
   C    -14.46000000    70.15000000    74.90000000
   C    -15.74000000    69.32000000    74.88000000
   C    -15.68000000    67.81000000    74.62000000
   N    -14.79000000    67.12000000    75.58000000
   H    -12.71000000    71.34000000    73.45000000
   H    -13.49000000    73.46000000    75.23000000
   H    -15.04000000    72.03000000    74.08000000
   H    -15.27000000    72.00000000    75.85000000
   H    -13.77000000    69.81000000    75.66000000
   H    -13.92000000    70.07000000    73.95000000
   H    -16.46000000    69.64000000    74.13000000
   H    -16.22000000    69.57000000    75.83000000
   H    -15.29000000    67.57000000    73.63000000
   H    -16.71000000    67.47000000    74.63000000
   H    -13.82000000    67.41000000    75.56000000
   H    -15.09000000    67.29000000    76.53000000
   H    -14.76000000    66.14000000    75.33000000
   N    -11.63000000    71.22000000    76.60000000
   C    -10.90000000    70.73000000    77.76000000
   C     -9.41000000    70.80000000    77.46000000
   O     -8.59000000    70.53000000    78.34000000
   C    -11.31000000    69.29000000    78.01000000
   C    -11.17000000    68.38000000    76.80000000
   O    -12.13000000    67.78000000    76.29000000
   O    -10.02000000    68.17000000    76.33000000
   H    -11.32000000    70.89000000    75.70000000
   H    -11.12000000    71.36000000    78.62000000
   H    -12.34000000    69.28000000    78.37000000
   H    -10.72000000    68.89000000    78.83000000
   N     -8.99000000    71.26000000    76.28000000
   C     -7.58000000    71.41000000    75.99000000
   C     -6.69000000    70.17000000    75.95000000
   O     -5.49000000    70.24000000    76.16000000
   H     -9.62000000    71.75000000    75.66000000
   H     -7.30000000    72.15000000    76.74000000
   H     -7.41000000    71.85000000    75.01000000
   N     -7.27000000    68.97000000    75.88000000
   C     -6.68000000    67.66000000    76.01000000
   C     -6.85000000    66.83000000    74.74000000
   O     -7.91000000    66.80000000    74.11000000
   C     -7.14000000    67.00000000    77.31000000
   C     -6.38000000    65.74000000    77.69000000
   N     -7.04000000    64.63000000    78.03000000
   O     -5.16000000    65.62000000    77.58000000
   H     -8.25000000    69.01000000    75.64000000
   H     -5.60000000    67.77000000    76.13000000
   H     -8.16000000    66.64000000    77.26000000
   H     -7.12000000    67.70000000    78.14000000
   H     -8.03000000    64.69000000    78.21000000
   H     -6.60000000    63.74000000    78.19000000
   N     -5.90000000    66.00000000    74.31000000
   C     -5.83000000    65.21000000    73.10000000
   C     -6.50000000    63.84000000    73.11000000
   O     -6.62000000    63.24000000    72.05000000
   H     -5.16000000    65.85000000    74.99000000
   H     -4.78000000    65.04000000    72.88000000
   H     -6.13000000    65.82000000    72.25000000
   N     -6.77000000    63.27000000    74.29000000
   C     -7.28000000    61.91000000    74.33000000
   C     -8.75000000    61.77000000    73.96000000
   O     -9.57000000    62.53000000    74.48000000
   C     -7.06000000    61.40000000    75.75000000
   C     -7.45000000    59.97000000    76.03000000
   C     -8.67000000    59.66000000    76.66000000
   C     -6.57000000    58.94000000    75.69000000
   C     -8.98000000    58.33000000    76.96000000
   C     -6.85000000    57.62000000    76.06000000
   C     -8.09000000    57.28000000    76.63000000
   O     -8.34000000    55.96000000    76.88000000
   H     -6.65000000    63.83000000    75.12000000
   H     -6.81000000    61.22000000    73.63000000
   H     -7.50000000    62.11000000    76.45000000
   H     -6.00000000    61.47000000    75.98000000
   H     -9.31000000    60.48000000    76.94000000
   H     -5.64000000    59.22000000    75.21000000
   H     -9.86000000    58.19000000    77.57000000
   H     -6.10000000    56.90000000    75.77000000
   H     -7.55000000    55.45000000    76.68000000
   N     -9.18000000    60.85000000    73.10000000
   C    -10.54000000    60.46000000    72.78000000
   C    -11.14000000    59.75000000    73.99000000
   O    -11.33000000    60.33000000    75.06000000
   C    -11.37000000    61.64000000    72.28000000
   C    -12.73000000    61.22000000    71.73000000
   C    -10.64000000    62.38000000    71.17000000
   C    -13.70000000    62.39000000    71.73000000
   H     -8.47000000    60.29000000    72.65000000
   H    -10.44000000    59.75000000    71.96000000
   H    -11.55000000    62.29000000    73.14000000
   H    -13.12000000    60.38000000    72.31000000
   H    -12.70000000    60.92000000    70.68000000
   H     -9.76000000    62.88000000    71.57000000
   H    -10.29000000    61.74000000    70.36000000
   H    -11.28000000    63.15000000    70.74000000
   H    -13.25000000    63.05000000    70.99000000
   H    -14.74000000    62.21000000    71.46000000
   H    -13.79000000    62.87000000    72.70000000
   N    -11.74000000    58.58000000    73.80000000
   C    -12.31000000    57.73000000    74.83000000
   C    -12.75000000    56.40000000    74.23000000
   O    -12.74000000    55.46000000    75.03000000
   C    -13.49000000    58.40000000    75.54000000
   O    -14.54000000    58.84000000    74.70000000
   H    -11.73000000    58.21000000    72.86000000
   H    -11.44000000    57.51000000    75.44000000
   H    -13.11000000    59.24000000    76.11000000
   H    -13.90000000    57.70000000    76.27000000
   H    -14.80000000    59.74000000    74.94000000
   N    -13.09000000    56.30000000    72.95000000
   C    -13.73000000    55.21000000    72.24000000
   C    -15.07000000    54.95000000    72.92000000
   O    -15.38000000    53.90000000    73.49000000
   C    -12.80000000    54.01000000    72.19000000
   H    -12.98000000    57.15000000    72.41000000
   H    -13.88000000    55.48000000    71.19000000
   H    -11.93000000    54.27000000    71.58000000
   H    -12.38000000    53.77000000    73.16000000
   H    -13.31000000    53.10000000    71.87000000
   N    -15.96000000    55.94000000    72.86000000
   C    -16.06000000    57.00000000    71.88000000
   C    -16.52000000    56.50000000    70.51000000
   O    -17.02000000    55.39000000    70.41000000
   C    -17.06000000    58.01000000    72.43000000
   H    -16.77000000    55.76000000    73.44000000
   H    -15.08000000    57.46000000    71.77000000
   H    -16.64000000    58.51000000    73.30000000
   H    -17.50000000    58.67000000    71.68000000
   H    -17.87000000    57.44000000    72.88000000
   N    -16.42000000    57.28000000    69.43000000
   C    -15.58000000    58.44000000    69.23000000
   C    -14.34000000    57.96000000    68.48000000
   O    -13.21000000    58.15000000    68.91000000
   C    -16.41000000    59.47000000    68.47000000
   C    -15.70000000    60.74000000    68.01000000
   C    -16.59000000    61.87000000    67.50000000
   O    -16.92000000    61.80000000    66.29000000
   O    -17.16000000    62.65000000    68.29000000
   H    -16.74000000    56.73000000    68.64000000
   H    -15.29000000    58.91000000    70.17000000
   H    -17.27000000    59.82000000    69.05000000
   H    -16.90000000    59.03000000    67.61000000
   H    -14.97000000    60.52000000    67.23000000
   H    -15.21000000    61.07000000    68.93000000
   N    -14.59000000    57.47000000    67.26000000
   C    -13.60000000    57.03000000    66.30000000
   H    -12.67200000    56.79200000    66.81900000
   H    -13.96400000    56.14200000    65.78300000
   H    -13.41700000    57.82400000    65.57600000
   H    -15.55000000    57.43000000    66.96000000
  Ca    -10.54600000    67.19000000    74.07000000
   O    -12.51600000    65.32000000    74.47000000
   H    -12.45600000    64.95000000    75.36000000
   H    -13.06600000    64.70000000    74.00000000
   O     -9.76600000    65.10000000    75.49000000
   H     -9.90600000    64.87000000    76.41000000
   H     -9.48600000    64.29000000    75.08000000
   O    -10.15600000    66.02000000    71.70000000
   H     -9.36600000    65.61000000    71.34000000
   H    -10.82600000    65.90000000    71.02000000
   O    -12.40600000    67.79000000    72.14000000
   H    -12.89600000    66.97000000    72.17000000
   H    -13.04600000    68.44000000    71.83000000

Ca 1.00



