%chk=loop2.holoCaM-CaMKII.run37.water2.chk
%nprocshared=20
%mem=10GB
%nosave
#b3lyp/svp scf=(tight,noincore,xqc) Test 
#IOP(5/87=12) Density=Current Pop=(MK,readradii) iop(6/33=2) iop(6/42=6)

loop2.holoCaM-CaMKII.run37.water2 

   -2  1 
   C     82.96700000    64.20000000    -3.53700000
   C     82.78700000    63.83000000    -4.99700000
   O     83.73700000    63.96000000    -5.76700000
   H     83.63000000    65.06200000    -3.46000000
   H     81.99900000    64.44800000    -3.10200000
   H     83.40200000    63.35800000    -2.99900000
   N     81.57700000    63.45000000    -5.42700000
   C     81.32700000    62.96000000    -6.76700000
   C     81.76700000    63.96000000    -7.82700000
   O     81.75700000    65.18000000    -7.65700000
   C     79.84700000    62.66000000    -7.01700000
   C     79.50700000    62.10000000    -8.38700000
   O     78.49700000    62.51000000    -9.00700000
   O     80.25700000    61.19000000    -8.79700000
   H     80.79700000    63.32000000    -4.79700000
   H     81.97700000    62.09000000    -6.79700000
   H     79.23700000    63.52000000    -6.75700000
   H     79.59700000    61.85000000    -6.33700000
   N     82.12700000    63.34000000    -8.94700000
   C     82.50700000    64.04000000   -10.15700000
   C     81.83700000    63.56000000   -11.43700000
   O     82.00700000    64.24000000   -12.43700000
   C     84.01700000    63.88000000   -10.32700000
   H     82.36700000    62.36000000    -8.87700000
   H     82.27700000    65.08000000    -9.93700000
   H     84.52700000    64.46000000    -9.55700000
   H     84.36700000    62.85000000   -10.39700000
   H     84.25700000    64.26000000   -11.31700000
   N     81.15700000    62.41000000   -11.48700000
   C     80.83700000    61.72000000   -12.72700000
   C     79.40700000    61.20000000   -12.79700000
   O     78.88700000    60.71000000   -13.78700000
   C     81.81700000    60.60000000   -13.05700000
   C     82.03700000    59.60000000   -11.92700000
   O     81.24700000    59.62000000   -10.95700000
   O     83.09700000    58.94000000   -11.96700000
   H     81.11700000    61.82000000   -10.67700000
   H     80.93700000    62.44000000   -13.53700000
   H     82.78700000    61.01000000   -13.32700000
   H     81.46700000    60.09000000   -13.95700000
   N     78.74700000    61.17000000   -11.63700000
   C     77.43700000    60.57000000   -11.50700000
   C     77.20700000    59.07000000   -11.61700000
   O     76.06700000    58.64000000   -11.78700000
   H     79.09700000    61.68000000   -10.83700000
   H     76.71700000    61.01000000   -12.18700000
   H     76.97700000    60.81000000   -10.53700000
   N     78.31700000    58.34000000   -11.67700000
   C     78.24700000    56.89000000   -11.74700000
   C     77.59700000    56.12000000   -10.60700000
   O     77.14700000    55.00000000   -10.86700000
   C     79.69700000    56.45000000   -11.92700000
   C     80.56700000    56.43000000   -10.67700000
   N     81.70700000    55.74000000   -10.67700000
   O     80.29700000    57.12000000    -9.68700000
   H     79.25700000    58.72000000   -11.70700000
   H     77.76700000    56.67000000   -12.70700000
   H     80.23700000    57.03000000   -12.66700000
   H     79.67700000    55.41000000   -12.26700000
   H     81.95700000    55.46000000   -11.60700000
   H     82.41700000    55.95000000    -9.98700000
   N     77.49700000    56.76000000    -9.44700000
   C     76.81700000    56.28000000    -8.25700000
   C     77.69700000    55.53000000    -7.27700000
   O     77.21700000    54.89000000    -6.33700000
   H     77.88700000    57.68000000    -9.33700000
   H     75.95700000    55.64000000    -8.43700000
   H     76.46700000    57.15000000    -7.69700000
   N     79.02700000    55.54000000    -7.41700000
   C     79.99700000    54.98000000    -6.50700000
   C     81.11700000    55.97000000    -6.21700000
   O     81.34700000    56.81000000    -7.08700000
   C     80.66700000    53.70000000    -7.00700000
   C     79.65700000    52.59000000    -6.75700000
   O     80.92700000    53.78000000    -8.39700000
   H     79.29700000    56.10000000    -8.21700000
   H     79.56700000    54.72000000    -5.53700000
   H     81.61700000    53.57000000    -6.48700000
   H     81.65700000    54.37000000    -8.61700000
   H     78.78700000    52.87000000    -7.36700000
   H     80.08700000    51.62000000    -6.99700000
   H     79.35700000    52.65000000    -5.71700000
   N     81.83700000    55.84000000    -5.10700000
   C     83.06700000    56.60000000    -4.99700000
   C     84.25700000    55.98000000    -5.70700000
   O     84.49700000    54.79000000    -5.51700000
   C     83.23700000    56.74000000    -3.48700000
   C     82.23700000    57.71000000    -2.84700000
   C     84.64700000    57.10000000    -3.02700000
   C     82.57700000    59.19000000    -2.87700000
   H     81.56700000    55.16000000    -4.40700000
   H     82.84700000    57.59000000    -5.41700000
   H     83.00700000    55.74000000    -3.09700000
   H     82.14700000    57.54000000    -1.77700000
   H     81.27700000    57.55000000    -3.31700000
   H     85.38700000    56.45000000    -3.49700000
   H     85.03700000    58.04000000    -3.40700000
   H     84.68700000    57.16000000    -1.94700000
   H     83.49700000    59.43000000    -2.33700000
   H     82.54700000    59.61000000    -3.87700000
   H     81.84700000    59.61000000    -2.16700000
   N     84.87700000    56.79000000    -6.56700000
   C     86.08700000    56.45000000    -7.28700000
   C     87.35700000    56.90000000    -6.58700000
   O     87.38700000    57.88000000    -5.83700000
   C     85.94700000    56.98000000    -8.71700000
   C     84.56700000    56.68000000    -9.27700000
   O     83.67700000    57.56000000    -9.29700000
   O     84.32700000    55.65000000    -9.95700000
   H     84.41700000    57.68000000    -6.68700000
   H     86.22700000    55.38000000    -7.37700000
   H     86.66700000    56.53000000    -9.39700000
   H     86.07700000    58.06000000    -8.63700000
   N     88.52700000    56.30000000    -6.84700000
   C     89.75700000    56.70000000    -6.20700000
   C     90.13700000    58.17000000    -6.34700000
   O     90.40700000    58.85000000    -5.36700000
   C     90.83700000    55.72000000    -6.66700000
   C     92.16700000    55.97000000    -6.00700000
   C     93.26700000    56.49000000    -6.70700000
   C     92.26700000    55.70000000    -4.63700000
   C     94.54700000    56.48000000    -6.12700000
   C     93.52700000    55.75000000    -4.03700000
   C     94.65700000    56.08000000    -4.78700000
   H     88.58700000    55.61000000    -7.57700000
   H     89.57700000    56.60000000    -5.13700000
   H     90.97700000    55.84000000    -7.74700000
   H     90.44700000    54.72000000    -6.50700000
   H     93.10700000    56.77000000    -7.73700000
   H     91.50700000    55.17000000    -4.07700000
   H     95.37700000    56.73000000    -6.77700000
   H     93.45700000    55.47000000    -2.99700000
   H     95.59700000    56.17000000    -4.25700000
   N     89.98700000    58.84000000    -7.49700000
   C     90.17700000    60.27000000    -7.63700000
   C     89.23700000    61.13000000    -6.80700000
   O     89.74700000    62.18000000    -6.41700000
   C     90.16700000    60.71000000    -9.09700000
   C     89.28700000    59.60000000    -9.66700000
   C     89.71700000    58.39000000    -8.84700000
   H     91.19700000    60.42000000    -7.29700000
   H     89.67700000    61.66000000    -9.33700000
   H     91.12700000    60.70000000    -9.59700000
   H     88.21700000    59.72000000    -9.52700000
   H     89.42700000    59.51000000   -10.74700000
   H     88.86700000    57.71000000    -8.80700000
   H     90.67700000    57.91000000    -9.05700000
   N     88.09700000    60.66000000    -6.30700000
   C     87.20700000    61.36000000    -5.40700000
   C     87.59700000    61.15000000    -3.95700000
   O     87.62700000    62.02000000    -3.08700000
   C     85.78700000    60.85000000    -5.68700000
   C     85.52700000    60.72000000    -7.17700000
   C     84.10700000    60.30000000    -7.50700000
   O     83.53700000    60.80000000    -8.49700000
   O     83.54700000    59.40000000    -6.83700000
   H     87.87700000    59.75000000    -6.67700000
   H     87.22700000    62.43000000    -5.60700000
   H     85.06700000    61.53000000    -5.23700000
   H     85.58700000    59.92000000    -5.15700000
   H     86.22700000    60.01000000    -7.61700000
   H     85.72700000    61.70000000    -7.62700000
   N     88.04700000    59.90000000    -3.77700000
   C     88.47700000    59.40000000    -2.48700000
   H     89.34600000    59.96500000    -2.15000000
   H     87.66800000    59.51300000    -1.76500000
   H     88.74100000    58.34600000    -2.57500000
   H     88.07700000    59.25000000    -4.55700000
  Ca     81.66000000    58.95000000    -8.62700000
   O     80.87000000    59.73000000    -6.19700000
   H     80.36000000    59.80000000    -5.38700000
   H     81.76000000    60.00000000    -5.94700000
   O     78.71000000    59.22000000    -8.25700000
   H     79.09000000    60.05000000    -8.51700000
   H     77.80000000    59.43000000    -8.01700000

Ca 1.00



