%chk=loop1.apoCaM-CA-Ng.Init31.run61.water4.chk
%nprocshared=20
%mem=10GB
%nosave
#b3lyp/svp scf=(tight,noincore,xqc) Test 
#IOP(5/87=12) Density=Current Pop=(MK,readradii) iop(6/33=2) iop(6/42=6)

loop1.apoCaM-CA-Ng.Init31.run61.water4 

   0  1 
   C     64.67000000    77.17000000    18.17000000
   C     64.49000000    78.13000000    17.00000000
   O     64.32000000    79.33000000    17.21000000
   H     65.40000000    77.58100000    18.86700000
   H     63.71600000    77.03600000    18.68100000
   H     65.02300000    76.20800000    17.80000000
   N     64.30000000    77.61000000    15.79000000
   C     63.54000000    78.29000000    14.77000000
   C     62.21000000    77.60000000    14.51000000
   O     62.03000000    76.53000000    15.09000000
   C     64.40000000    78.17000000    13.51000000
   C     63.85000000    78.85000000    12.27000000
   O     64.52000000    78.84000000    11.22000000
   O     62.92000000    79.70000000    12.28000000
   H     64.45000000    76.62000000    15.67000000
   H     63.23000000    79.32000000    14.98000000
   H     64.60000000    77.13000000    13.26000000
   H     65.36000000    78.62000000    13.74000000
   N     61.26000000    78.05000000    13.68000000
   C     59.92000000    77.50000000    13.59000000
   C     59.86000000    76.05000000    13.13000000
   O     59.07000000    75.34000000    13.74000000
   C     59.06000000    78.55000000    12.89000000
   C     57.58000000    78.20000000    12.96000000
   C     57.10000000    77.33000000    11.80000000
   C     55.75000000    76.68000000    12.08000000
   N     55.59000000    75.52000000    11.18000000
   H     61.46000000    78.91000000    13.21000000
   H     59.56000000    77.41000000    14.61000000
   H     59.40000000    78.71000000    11.86000000
   H     59.20000000    79.56000000    13.29000000
   H     57.13000000    79.19000000    12.82000000
   H     57.33000000    77.71000000    13.90000000
   H     57.81000000    76.56000000    11.48000000
   H     57.05000000    77.92000000    10.88000000
   H     54.93000000    77.36000000    11.85000000
   H     55.64000000    76.41000000    13.13000000
   H     56.31000000    74.86000000    11.43000000
   H     54.69000000    75.08000000    11.30000000
   H     55.68000000    75.72000000    10.20000000
   N     60.55000000    75.50000000    12.13000000
   C     61.39000000    76.13000000    11.13000000
   C     62.64000000    75.36000000    10.73000000
   O     62.62000000    74.13000000    10.67000000
   C     60.61000000    76.44000000     9.86000000
   C     61.24000000    77.42000000     8.87000000
   O     61.78000000    78.48000000     9.25000000
   O     61.29000000    77.08000000     7.67000000
   H     60.54000000    74.50000000    12.26000000
   H     61.79000000    77.08000000    11.49000000
   H     59.63000000    76.83000000    10.13000000
   H     60.36000000    75.49000000     9.40000000
   N     63.81000000    75.97000000    10.57000000
   C     65.07000000    75.26000000    10.45000000
   C     66.18000000    76.20000000    10.01000000
   O     66.99000000    76.68000000    10.80000000
   H     63.81000000    76.98000000    10.61000000
   H     65.06000000    74.41000000     9.77000000
   H     65.39000000    74.98000000    11.45000000
   N     66.14000000    76.74000000     8.79000000
   C     67.13000000    77.64000000     8.24000000
   C     68.24000000    76.86000000     7.55000000
   O     67.93000000    76.12000000     6.62000000
   C     66.62000000    78.79000000     7.38000000
   C     65.53000000    79.63000000     8.03000000
   O     65.82000000    80.57000000     8.80000000
   O     64.34000000    79.35000000     7.76000000
   H     65.37000000    76.43000000     8.21000000
   H     67.54000000    78.12000000     9.13000000
   H     66.21000000    78.35000000     6.47000000
   H     67.43000000    79.34000000     6.91000000
   N     69.55000000    77.09000000     7.70000000
   C     70.20000000    78.04000000     8.58000000
   C     70.47000000    79.45000000     8.08000000
   O     70.99000000    80.24000000     8.86000000
   H     70.19000000    76.61000000     7.08000000
   H     71.14000000    77.56000000     8.86000000
   H     69.60000000    78.09000000     9.49000000
   N     70.26000000    79.68000000     6.78000000
   C     71.00000000    80.63000000     5.97000000
   C     72.49000000    80.34000000     6.12000000
   O     73.30000000    81.12000000     6.62000000
   C     70.53000000    82.07000000     6.16000000
   C     69.14000000    82.40000000     5.62000000
   O     71.36000000    82.84000000     5.32000000
   H     69.80000000    78.97000000     6.23000000
   H     70.75000000    80.44000000     4.92000000
   H     70.61000000    82.44000000     7.18000000
   H     71.81000000    83.45000000     5.92000000
   H     69.00000000    83.47000000     5.79000000
   H     69.10000000    82.23000000     4.54000000
   H     68.36000000    81.81000000     6.09000000
   N     72.88000000    79.12000000     5.75000000
   C     74.21000000    78.55000000     5.68000000
   C     75.08000000    79.08000000     4.54000000
   O     75.41000000    78.33000000     3.62000000
   C     74.85000000    78.32000000     7.04000000
   C     73.98000000    77.43000000     7.93000000
   C     76.26000000    77.75000000     6.96000000
   C     74.61000000    77.11000000     9.28000000
   H     72.28000000    78.48000000     5.26000000
   H     73.97000000    77.53000000     5.38000000
   H     74.89000000    79.23000000     7.65000000
   H     73.72000000    76.50000000     7.42000000
   H     73.01000000    77.90000000     8.07000000
   H     76.87000000    78.53000000     6.51000000
   H     76.81000000    77.66000000     7.90000000
   H     76.21000000    76.86000000     6.33000000
   H     73.83000000    76.68000000     9.91000000
   H     75.46000000    76.48000000     9.01000000
   H     74.93000000    77.98000000     9.85000000
   N     75.44000000    80.36000000     4.58000000
   C     76.18000000    81.02000000     3.52000000
   C     77.34000000    81.81000000     4.09000000
   O     77.26000000    82.17000000     5.26000000
   C     75.36000000    82.03000000     2.72000000
   C     74.53000000    82.99000000     3.57000000
   O     74.56000000    81.24000000     1.87000000
   H     75.05000000    80.90000000     5.33000000
   H     76.60000000    80.31000000     2.81000000
   H     75.98000000    82.68000000     2.10000000
   H     74.12000000    81.86000000     1.28000000
   H     73.98000000    82.46000000     4.35000000
   H     75.17000000    83.68000000     4.12000000
   H     73.80000000    83.52000000     2.97000000
   N     78.42000000    82.09000000     3.35000000
   C     79.48000000    82.96000000     3.83000000
   C     79.03000000    84.40000000     4.04000000
   O     78.27000000    84.92000000     3.23000000
   C     80.78000000    82.91000000     3.03000000
   C     81.29000000    81.47000000     2.95000000
   O     80.58000000    83.49000000     1.77000000
   H     78.39000000    81.66000000     2.44000000
   H     79.64000000    82.61000000     4.85000000
   H     81.53000000    83.41000000     3.65000000
   H     81.43000000    83.88000000     1.55000000
   H     81.16000000    81.12000000     3.98000000
   H     80.66000000    80.99000000     2.21000000
   H     82.31000000    81.46000000     2.58000000
   N     79.54000000    85.02000000     5.11000000
   C     79.24000000    86.35000000     5.60000000
   C     77.75000000    86.53000000     5.85000000
   O     77.22000000    87.62000000     5.62000000
   C     79.85000000    87.43000000     4.72000000
   C     81.38000000    87.45000000     4.74000000
   C     82.06000000    88.78000000     4.44000000
   C     81.86000000    89.22000000     2.99000000
   N     82.94000000    90.15000000     2.59000000
   H     80.18000000    84.43000000     5.61000000
   H     79.66000000    86.43000000     6.60000000
   H     79.49000000    88.42000000     5.00000000
   H     79.46000000    87.36000000     3.70000000
   H     81.77000000    86.70000000     4.06000000
   H     81.71000000    87.04000000     5.70000000
   H     83.13000000    88.58000000     4.49000000
   H     81.80000000    89.53000000     5.18000000
   H     80.93000000    89.79000000     2.98000000
   H     81.78000000    88.36000000     2.33000000
   H     83.73000000    89.65000000     2.20000000
   H     82.65000000    90.67000000     1.78000000
   H     83.28000000    90.72000000     3.35000000
   N     76.99000000    85.52000000     6.28000000
   C     75.58000000    85.62000000     6.62000000
   C     74.79000000    84.32000000     6.77000000
   O     73.64000000    84.31000000     6.34000000
   C     75.32000000    86.48000000     7.85000000
   C     74.98000000    87.97000000     7.80000000
   C     75.19000000    88.53000000     9.20000000
   O     76.21000000    89.22000000     9.42000000
   O     74.21000000    88.43000000     9.97000000
   H     77.39000000    84.59000000     6.30000000
   H     75.07000000    86.15000000     5.82000000
   H     76.28000000    86.44000000     8.35000000
   H     74.60000000    86.06000000     8.55000000
   H     73.93000000    88.12000000     7.54000000
   H     75.60000000    88.48000000     7.06000000
   N     75.32000000    83.23000000     7.32000000
   C     76.51000000    83.07000000     8.13000000
   H     77.28300000    83.75300000     7.77800000
   H     76.27500000    83.29400000     9.17100000
   H     76.86900000    82.04400000     8.05100000
   H     74.79000000    82.38000000     7.18000000
  Ca     63.27000000    80.57000000     9.73000000
   O     64.51000000    82.07000000    11.62000000
   H     64.97000000    81.89000000    12.43000000
   H     64.47000000    83.03000000    11.56000000
   O     61.32000000    82.18000000    10.82000000
   H     60.46000000    82.22000000    10.41000000
   H     61.22000000    82.65000000    11.65000000
   O     63.35000000    82.93000000     8.60000000
   H     62.55000000    83.33000000     8.93000000
   H     63.72000000    83.58000000     8.00000000
   O     61.43000000    80.87000000     7.75000000
   H     60.49000000    80.82000000     7.91000000
   H     61.58000000    80.25000000     7.03000000

Ca 1.00



