%chk=loop4.apoCaM-CA-Ng.Init295.run95.water2.chk
%nprocshared=20
%mem=10GB
%nosave
#b3lyp/svp scf=(tight,noincore,xqc) Test 
#IOP(5/87=12) Density=Current Pop=(MK,readradii) iop(6/33=2) iop(6/42=6)

loop4.apoCaM-CA-Ng.Init295.run95.water2 

   -3  1 
   C    103.86000000    68.98000000    77.52000000
   C    102.69000000    68.00000000    77.47000000
   O    101.63000000    68.33000000    76.95000000
   H    104.70800000    68.56000000    76.98000000
   H    103.56600000    69.92200000    77.05700000
   H    104.14300000    69.15700000    78.55800000
   N    102.78000000    66.78000000    78.00000000
   C    101.86000000    65.67000000    77.91000000
   C    101.60000000    65.17000000    76.49000000
   O    100.44000000    64.95000000    76.14000000
   C    100.59000000    65.84000000    78.74000000
   C    100.89000000    66.35000000    80.14000000
   O    100.33000000    67.36000000    80.60000000
   O    101.94000000    65.93000000    80.67000000
   H    103.56000000    66.56000000    78.60000000
   H    102.38000000    64.83000000    78.37000000
   H    100.18000000    64.83000000    78.74000000
   H     99.96000000    66.62000000    78.29000000
   N    102.67000000    65.09000000    75.70000000
   C    102.56000000    64.71000000    74.30000000
   C    103.23000000    63.35000000    74.15000000
   O    104.39000000    63.17000000    74.51000000
   C    103.11000000    65.75000000    73.33000000
   C    102.44000000    67.10000000    73.54000000
   C    102.83000000    65.37000000    71.87000000
   C    102.89000000    68.25000000    72.63000000
   H    103.61000000    65.17000000    76.05000000
   H    101.53000000    64.46000000    74.05000000
   H    104.19000000    65.77000000    73.44000000
   H    102.75000000    67.41000000    74.54000000
   H    101.36000000    66.97000000    73.50000000
   H    103.24000000    64.39000000    71.64000000
   H    101.76000000    65.29000000    71.66000000
   H    103.35000000    66.08000000    71.23000000
   H    102.57000000    69.20000000    73.05000000
   H    103.98000000    68.28000000    72.71000000
   H    102.62000000    68.11000000    71.58000000
   N    102.60000000    62.35000000    73.54000000
   C    101.29000000    62.24000000    72.93000000
   C    100.23000000    61.92000000    73.98000000
   O     99.11000000    62.36000000    73.74000000
   C    101.38000000    61.22000000    71.80000000
   C    100.09000000    61.03000000    71.01000000
   O     99.62000000    59.87000000    70.92000000
   O     99.54000000    61.95000000    70.37000000
   H    103.21000000    61.56000000    73.37000000
   H    101.02000000    63.21000000    72.51000000
   H    101.65000000    60.23000000    72.19000000
   H    102.15000000    61.56000000    71.11000000
   N    100.45000000    61.31000000    75.15000000
   C     99.44000000    61.14000000    76.17000000
   C     98.14000000    60.51000000    75.67000000
   O     98.23000000    59.50000000    74.99000000
   H    101.43000000    61.11000000    75.29000000
   H     99.24000000    62.10000000    76.63000000
   H     99.96000000    60.54000000    76.92000000
   N     97.00000000    61.08000000    76.07000000
   C     95.66000000    60.62000000    75.78000000
   C     94.78000000    61.60000000    75.01000000
   O     93.74000000    61.24000000    74.46000000
   C     94.93000000    60.09000000    77.02000000
   C     94.90000000    61.18000000    78.08000000
   O     94.19000000    62.19000000    77.90000000
   O     95.78000000    60.98000000    78.95000000
   H     97.07000000    61.90000000    76.66000000
   H     95.82000000    59.77000000    75.12000000
   H     95.44000000    59.24000000    77.46000000
   H     93.94000000    59.74000000    76.71000000
   N     95.24000000    62.84000000    74.81000000
   C     94.56000000    63.91000000    74.10000000
   C     93.16000000    64.31000000    74.52000000
   O     92.47000000    64.96000000    73.72000000
   H     96.04000000    63.09000000    75.36000000
   H     94.52000000    63.60000000    73.06000000
   H     95.16000000    64.81000000    74.24000000
   N     92.65000000    64.03000000    75.72000000
   C     91.41000000    64.53000000    76.29000000
   C     91.32000000    66.04000000    76.46000000
   O     90.23000000    66.61000000    76.49000000
   C     90.20000000    63.88000000    75.62000000
   C     88.96000000    63.68000000    76.49000000
   C     87.75000000    63.20000000    75.69000000
   N     87.60000000    61.89000000    75.46000000
   O     86.93000000    63.94000000    75.16000000
   H     93.27000000    63.44000000    76.25000000
   H     91.48000000    64.10000000    77.29000000
   H     90.55000000    62.90000000    75.31000000
   H     89.89000000    64.33000000    74.68000000
   H     88.79000000    64.68000000    76.89000000
   H     89.07000000    63.12000000    77.41000000
   H     88.14000000    61.21000000    75.97000000
   H     86.85000000    61.54000000    74.88000000
   N     92.50000000    66.65000000    76.51000000
   C     92.60000000    68.09000000    76.66000000
   C     92.97000000    68.38000000    78.11000000
   O     93.38000000    67.46000000    78.82000000
   C     93.59000000    68.68000000    75.66000000
   C     95.05000000    68.46000000    76.06000000
   C     93.36000000    68.12000000    74.26000000
   H     93.34000000    66.10000000    76.55000000
   H     91.67000000    68.64000000    76.48000000
   H     93.52000000    69.77000000    75.63000000
   H     95.28000000    67.43000000    76.32000000
   H     95.76000000    68.72000000    75.27000000
   H     95.26000000    68.96000000    77.01000000
   H     94.03000000    68.61000000    73.56000000
   H     93.80000000    67.12000000    74.22000000
   H     92.34000000    68.10000000    73.87000000
   N     92.80000000    69.60000000    78.63000000
   C     93.18000000    70.12000000    79.93000000
   C     93.91000000    71.42000000    79.63000000
   O     93.80000000    71.94000000    78.52000000
   C     91.91000000    70.40000000    80.71000000
   C     91.15000000    69.14000000    81.11000000
   N     89.91000000    69.29000000    81.60000000
   O     91.73000000    68.06000000    81.08000000
   H     92.07000000    70.17000000    78.23000000
   H     93.74000000    69.37000000    80.50000000
   H     91.20000000    71.00000000    80.14000000
   H     92.02000000    70.96000000    81.64000000
   H     89.61000000    70.23000000    81.78000000
   H     89.43000000    68.49000000    81.97000000
   N     94.64000000    71.90000000    80.64000000
   C     95.26000000    73.21000000    80.53000000
   C     96.26000000    73.43000000    81.65000000
   O     96.21000000    74.45000000    82.33000000
   C     94.19000000    74.30000000    80.58000000
   C     94.56000000    75.66000000    80.04000000
   C     94.65000000    75.92000000    78.67000000
   C     94.65000000    76.83000000    80.80000000
   C     94.76000000    77.21000000    78.14000000
   C     94.79000000    78.16000000    80.37000000
   C     94.97000000    78.33000000    78.98000000
   O     95.18000000    79.52000000    78.36000000
   H     94.83000000    71.37000000    81.47000000
   H     95.75000000    73.24000000    79.56000000
   H     93.83000000    74.43000000    81.60000000
   H     93.32000000    73.97000000    80.02000000
   H     94.57000000    75.05000000    78.03000000
   H     94.64000000    76.77000000    81.88000000
   H     94.92000000    77.27000000    77.08000000
   H     94.84000000    79.00000000    81.04000000
   H     95.34000000    80.17000000    79.04000000
   N     97.22000000    72.52000000    81.83000000
   C     98.14000000    72.49000000    82.96000000
   C     99.10000000    73.67000000    82.93000000
   O     99.11000000    74.40000000    83.92000000
   C     98.79000000    71.12000000    83.11000000
   C     99.78000000    71.15000000    84.27000000
   C    100.27000000    69.78000000    84.71000000
   O    100.92000000    69.04000000    83.93000000
   O    100.02000000    69.43000000    85.88000000
   H     97.29000000    71.72000000    81.23000000
   H     97.57000000    72.64000000    83.88000000
   H     99.27000000    70.85000000    82.17000000
   H     97.95000000    70.45000000    83.30000000
   H     99.32000000    71.59000000    85.15000000
   H    100.65000000    71.77000000    84.08000000
   N     99.90000000    73.93000000    81.89000000
   C     99.99000000    73.33000000    80.58000000
   C     99.16000000    73.88000000    79.43000000
   O     98.54000000    74.94000000    79.55000000
   C    101.47000000    73.20000000    80.19000000
   C    102.51000000    72.71000000    81.18000000
   C    102.26000000    71.23000000    81.46000000
   O    102.88000000    70.71000000    82.42000000
   O    101.51000000    70.49000000    80.80000000
   H    100.54000000    74.70000000    81.98000000
   H     99.58000000    72.33000000    80.73000000
   H    101.73000000    74.24000000    79.99000000
   H    101.50000000    72.72000000    79.21000000
   H    102.48000000    73.27000000    82.11000000
   H    103.43000000    72.92000000    80.63000000
   N     99.17000000    73.10000000    78.35000000
   C     98.60000000    73.37000000    77.05000000
   H     97.71000000    73.98900000    77.16600000
   H     99.33000000    73.89600000    76.43500000
   H     98.32900000    72.43000000    76.56900000
   H     99.73000000    72.26000000    78.37000000
  Ca    102.43400000    68.27000000    82.00000000
   O    104.67400000    67.68000000    83.32000000
   H    105.16400000    68.47000000    83.57000000
   H    105.20400000    66.96000000    83.67000000
   O    101.84400000    66.28000000    83.43000000
   H    101.28400000    66.14000000    84.20000000
   H    102.19400000    65.41000000    83.23000000

Ca 1.00



