%chk=loop2.apoCaM-CA-Ng.Init31.run60.water5.chk
%nprocshared=20
%mem=10GB
%nosave
#b3lyp/svp scf=(tight,noincore,xqc) Test 
#IOP(5/87=12) Density=Current Pop=(MK,readradii) iop(6/33=2) iop(6/42=6)

loop2.apoCaM-CA-Ng.Init31.run60.water5 

   -2  1 
   C     89.96000000    72.51000000    -8.48000000
   C     88.55000000    71.94000000    -8.46000000
   O     88.35000000    70.84000000    -7.95000000
   H     90.63100000    71.80000000    -8.96400000
   H     89.96500000    73.44900000    -9.03300000
   H     90.29500000    72.68800000    -7.45800000
   N     87.52000000    72.55000000    -9.04000000
   C     87.34000000    73.96000000    -9.30000000
   C     86.49000000    74.11000000   -10.56000000
   O     85.98000000    73.11000000   -11.07000000
   C     86.59000000    74.62000000    -8.15000000
   C     85.41000000    73.87000000    -7.56000000
   O     84.87000000    72.98000000    -8.24000000
   O     84.99000000    74.10000000    -6.40000000
   H     86.66000000    72.03000000    -8.97000000
   H     88.27000000    74.48000000    -9.53000000
   H     86.31000000    75.60000000    -8.52000000
   H     87.28000000    74.79000000    -7.31000000
   N     86.41000000    75.31000000   -11.14000000
   C     85.80000000    75.71000000   -12.40000000
   C     84.38000000    75.28000000   -12.72000000
   O     83.87000000    75.53000000   -13.81000000
   C     86.86000000    75.38000000   -13.45000000
   H     86.75000000    76.08000000   -10.59000000
   H     85.66000000    76.78000000   -12.28000000
   H     87.78000000    75.93000000   -13.25000000
   H     87.13000000    74.32000000   -13.47000000
   H     86.46000000    75.58000000   -14.44000000
   N     83.67000000    74.71000000   -11.75000000
   C     82.25000000    74.44000000   -11.62000000
   C     81.75000000    74.34000000   -10.18000000
   O     82.44000000    73.76000000    -9.35000000
   C     81.87000000    73.22000000   -12.45000000
   C     82.56000000    71.93000000   -12.02000000
   O     83.49000000    71.39000000   -12.67000000
   O     82.17000000    71.35000000   -10.99000000
   H     84.19000000    74.26000000   -11.01000000
   H     81.69000000    75.24000000   -12.09000000
   H     82.20000000    73.44000000   -13.47000000
   H     80.80000000    73.02000000   -12.54000000
   N     80.61000000    74.94000000    -9.82000000
   C     79.98000000    75.02000000    -8.52000000
   C     79.05000000    73.87000000    -8.19000000
   O     78.46000000    73.36000000    -9.14000000
   H     80.14000000    75.45000000   -10.55000000
   H     79.32000000    75.88000000    -8.64000000
   H     80.69000000    75.20000000    -7.71000000
   N     78.86000000    73.49000000    -6.92000000
   C     77.96000000    72.45000000    -6.47000000
   C     77.52000000    72.87000000    -5.07000000
   O     78.39000000    73.40000000    -4.39000000
   C     78.69000000    71.11000000    -6.51000000
   C     79.32000000    70.64000000    -7.81000000
   N     78.70000000    69.71000000    -8.55000000
   O     80.43000000    70.99000000    -8.20000000
   H     79.50000000    73.91000000    -6.26000000
   H     77.20000000    72.40000000    -7.25000000
   H     77.97000000    70.33000000    -6.25000000
   H     79.50000000    71.12000000    -5.78000000
   H     77.75000000    69.44000000    -8.34000000
   H     79.07000000    69.36000000    -9.42000000
   N     76.34000000    72.42000000    -4.63000000
   C     75.98000000    72.76000000    -3.26000000
   C     74.62000000    72.20000000    -2.88000000
   O     73.95000000    71.56000000    -3.68000000
   H     75.69000000    71.92000000    -5.21000000
   H     75.75000000    73.82000000    -3.15000000
   H     76.71000000    72.50000000    -2.49000000
   N     74.24000000    72.31000000    -1.60000000
   C     74.88000000    73.04000000    -0.53000000
   C     76.05000000    72.31000000     0.12000000
   O     76.89000000    72.89000000     0.80000000
   C     73.93000000    73.45000000     0.59000000
   C     72.79000000    74.37000000     0.16000000
   O     73.40000000    72.31000000     1.21000000
   H     73.33000000    71.93000000    -1.38000000
   H     75.25000000    73.96000000    -0.99000000
   H     74.43000000    74.02000000     1.37000000
   H     72.98000000    72.67000000     1.99000000
   H     72.07000000    74.06000000    -0.60000000
   H     72.11000000    74.58000000     0.99000000
   H     73.19000000    75.33000000    -0.18000000
   N     76.06000000    70.99000000    -0.07000000
   C     77.04000000    70.07000000     0.46000000
   C     77.25000000    70.18000000     1.97000000
   O     78.06000000    70.99000000     2.41000000
   C     78.33000000    69.90000000    -0.34000000
   C     78.39000000    70.27000000    -1.82000000
   C     79.05000000    68.56000000    -0.21000000
   C     77.45000000    69.54000000    -2.77000000
   H     75.23000000    70.63000000    -0.52000000
   H     76.52000000    69.12000000     0.31000000
   H     79.00000000    70.66000000     0.08000000
   H     79.40000000    70.15000000    -2.22000000
   H     78.24000000    71.34000000    -1.89000000
   H     78.68000000    67.88000000    -0.98000000
   H     80.13000000    68.64000000    -0.36000000
   H     78.85000000    68.10000000     0.76000000
   H     77.80000000    69.89000000    -3.74000000
   H     77.47000000    68.45000000    -2.74000000
   H     76.43000000    69.84000000    -2.51000000
   N     76.62000000    69.38000000     2.83000000
   C     75.60000000    68.39000000     2.56000000
   C     76.12000000    67.01000000     2.20000000
   O     75.74000000    66.52000000     1.14000000
   C     74.62000000    68.30000000     3.74000000
   C     75.22000000    68.41000000     5.13000000
   O     74.44000000    68.66000000     6.07000000
   O     76.43000000    68.18000000     5.33000000
   H     76.91000000    69.29000000     3.80000000
   H     74.99000000    68.73000000     1.72000000
   H     74.03000000    67.40000000     3.55000000
   H     73.93000000    69.13000000     3.66000000
   N     76.93000000    66.34000000     3.02000000
   C     77.63000000    65.07000000     2.86000000
   C     77.08000000    63.93000000     3.69000000
   O     76.34000000    64.26000000     4.61000000
   C     79.13000000    65.28000000     2.96000000
   C     79.51000000    65.57000000     4.40000000
   C     79.56000000    66.90000000     4.83000000
   C     79.87000000    64.52000000     5.26000000
   C     79.90000000    67.22000000     6.15000000
   C     80.21000000    64.86000000     6.57000000
   C     80.20000000    66.18000000     7.04000000
   H     77.15000000    66.83000000     3.88000000
   H     77.59000000    64.82000000     1.80000000
   H     79.32000000    66.11000000     2.28000000
   H     79.66000000    64.36000000     2.71000000
   H     79.21000000    67.72000000     4.23000000
   H     79.71000000    63.50000000     4.95000000
   H     79.82000000    68.24000000     6.51000000
   H     80.49000000    64.07000000     7.25000000
   H     80.43000000    66.34000000     8.08000000
   N     77.34000000    62.63000000     3.53000000
   C     78.11000000    61.87000000     2.56000000
   C     77.69000000    62.11000000     1.11000000
   O     76.82000000    62.94000000     0.86000000
   C     78.07000000    60.40000000     2.96000000
   C     76.72000000    60.37000000     3.67000000
   C     76.69000000    61.70000000     4.42000000
   H     79.15000000    62.06000000     2.80000000
   H     78.26000000    59.72000000     2.13000000
   H     78.85000000    60.23000000     3.70000000
   H     75.97000000    60.38000000     2.88000000
   H     76.55000000    59.45000000     4.23000000
   H     75.71000000    62.04000000     4.75000000
   H     77.24000000    61.54000000     5.36000000
   N     78.34000000    61.49000000     0.12000000
   C     78.03000000    61.63000000    -1.29000000
   C     79.28000000    61.62000000    -2.15000000
   O     79.26000000    60.91000000    -3.15000000
   C     77.02000000    60.56000000    -1.71000000
   C     75.67000000    60.76000000    -1.03000000
   C     74.68000000    59.77000000    -1.63000000
   O     73.71000000    60.24000000    -2.28000000
   O     74.77000000    58.54000000    -1.44000000
   H     79.09000000    60.86000000     0.36000000
   H     77.54000000    62.60000000    -1.38000000
   H     77.39000000    59.56000000    -1.48000000
   H     76.88000000    60.60000000    -2.79000000
   H     75.37000000    61.80000000    -1.16000000
   H     75.75000000    60.53000000     0.03000000
   N     80.39000000    62.32000000    -1.90000000
   C     80.75000000    63.12000000    -0.76000000
   H     81.60500000    63.74700000    -1.01200000
   H     79.90800000    63.75100000    -0.47800000
   H     81.01200000    62.46800000     0.07400000
   H     81.13000000    62.22000000    -2.58000000
  Ca     82.99000000    71.23000000    -8.46800000
   O     85.10000000    69.86000000    -7.28800000
   H     85.97000000    70.14000000    -7.00800000
   H     85.17000000    68.91000000    -7.41800000
   O     82.57000000    68.80000000    -9.37800000
   H     82.13000000    68.02000000    -9.02800000
   H     82.89000000    68.53000000   -10.23800000
   O     82.56000000    72.92000000    -6.54800000
   H     82.13000000    73.21000000    -5.74800000
   H     83.23000000    73.58000000    -6.71800000
   O     84.97000000    70.66000000   -10.36800000
   H     85.64000000    71.35000000   -10.37800000
   H     84.49000000    70.79000000   -11.18800000
   O     82.23000000    69.70000000    -6.26800000
   H     82.23000000    69.90000000    -5.32800000
   H     81.82000000    68.84000000    -6.33800000

Ca 1.00



