%chk=loop1.apoCaM-CA-Ng.Init31.run1.water5.chk
%nprocshared=20
%mem=10GB
%nosave
#b3lyp/svp scf=(tight,noincore,xqc) Test 
#IOP(5/87=12) Density=Current Pop=(MK,readradii) iop(6/33=2) iop(6/42=6)

loop1.apoCaM-CA-Ng.Init31.run1.water5 

   0  1 
   C     36.71000000    65.98000000    -4.10000000
   C     35.40000000    65.38000000    -3.60000000
   O     34.69000000    64.81000000    -4.42000000
   H     37.49700000    65.22700000    -4.04800000
   H     36.58900000    66.30800000    -5.13200000
   H     36.98100000    66.83200000    -3.47700000
   N     35.18000000    65.31000000    -2.28000000
   C     34.01000000    64.61000000    -1.78000000
   C     33.25000000    65.35000000    -0.68000000
   O     33.80000000    66.14000000     0.07000000
   C     34.45000000    63.33000000    -1.07000000
   C     33.33000000    62.41000000    -0.60000000
   O     32.84000000    61.57000000    -1.38000000
   O     33.05000000    62.47000000     0.61000000
   H     35.81000000    65.68000000    -1.59000000
   H     33.42000000    64.32000000    -2.65000000
   H     34.98000000    63.59000000    -0.16000000
   H     35.08000000    62.77000000    -1.76000000
   N     31.94000000    65.09000000    -0.60000000
   C     30.99000000    65.99000000     0.01000000
   C     30.35000000    65.45000000     1.29000000
   O     30.63000000    66.03000000     2.33000000
   C     30.03000000    66.56000000    -1.02000000
   C     29.11000000    67.71000000    -0.59000000
   C     28.14000000    68.07000000    -1.71000000
   C     28.64000000    68.34000000    -3.12000000
   N     29.59000000    69.46000000    -3.19000000
   H     31.59000000    64.42000000    -1.28000000
   H     31.45000000    66.90000000     0.39000000
   H     29.50000000    65.72000000    -1.47000000
   H     30.70000000    67.04000000    -1.74000000
   H     29.67000000    68.54000000    -0.17000000
   H     28.47000000    67.23000000     0.15000000
   H     27.56000000    68.96000000    -1.44000000
   H     27.39000000    67.29000000    -1.85000000
   H     27.73000000    68.42000000    -3.72000000
   H     29.10000000    67.45000000    -3.55000000
   H     29.22000000    70.39000000    -3.10000000
   H     30.28000000    69.40000000    -2.45000000
   H     29.99000000    69.56000000    -4.12000000
   N     29.48000000    64.44000000     1.34000000
   C     29.10000000    63.53000000     0.27000000
   C     29.13000000    62.10000000     0.77000000
   O     28.14000000    61.51000000     1.20000000
   C     27.73000000    63.95000000    -0.27000000
   C     27.38000000    63.08000000    -1.47000000
   O     26.21000000    63.06000000    -1.90000000
   O     28.12000000    62.26000000    -2.05000000
   H     29.11000000    64.23000000     2.26000000
   H     29.85000000    63.62000000    -0.51000000
   H     27.60000000    65.00000000    -0.51000000
   H     26.98000000    63.80000000     0.51000000
   N     30.33000000    61.50000000     0.79000000
   C     30.64000000    60.25000000     1.45000000
   C     30.39000000    59.07000000     0.53000000
   O     29.60000000    58.18000000     0.85000000
   H     31.06000000    62.07000000     0.39000000
   H     30.11000000    60.06000000     2.38000000
   H     31.71000000    60.28000000     1.69000000
   N     30.92000000    59.14000000    -0.70000000
   C     31.08000000    58.05000000    -1.64000000
   C     31.79000000    56.80000000    -1.14000000
   O     31.67000000    56.43000000     0.03000000
   C     29.72000000    57.76000000    -2.28000000
   C     28.81000000    58.94000000    -2.58000000
   O     27.63000000    58.93000000    -2.17000000
   O     29.09000000    59.82000000    -3.42000000
   H     31.51000000    59.93000000    -0.93000000
   H     31.65000000    58.52000000    -2.44000000
   H     29.26000000    56.96000000    -1.69000000
   H     29.82000000    57.39000000    -3.30000000
   N     32.62000000    56.11000000    -1.94000000
   C     32.77000000    56.27000000    -3.37000000
   C     33.44000000    55.13000000    -4.12000000
   O     33.98000000    55.44000000    -5.19000000
   H     33.14000000    55.37000000    -1.48000000
   H     33.48000000    57.08000000    -3.54000000
   H     31.80000000    56.49000000    -3.82000000
   N     33.48000000    53.90000000    -3.62000000
   C     34.07000000    52.74000000    -4.25000000
   C     35.56000000    52.86000000    -4.55000000
   O     35.91000000    53.15000000    -5.69000000
   C     33.26000000    52.33000000    -5.47000000
   C     31.84000000    51.94000000    -5.06000000
   O     33.74000000    51.20000000    -6.15000000
   H     33.12000000    53.69000000    -2.69000000
   H     34.05000000    51.95000000    -3.49000000
   H     33.16000000    53.14000000    -6.20000000
   H     33.34000000    51.29000000    -7.01000000
   H     31.18000000    51.85000000    -5.92000000
   H     31.80000000    50.98000000    -4.56000000
   H     31.33000000    52.69000000    -4.46000000
   N     36.44000000    52.43000000    -3.64000000
   C     37.86000000    52.16000000    -3.77000000
   C     38.26000000    51.02000000    -4.70000000
   O     39.05000000    50.15000000    -4.33000000
   C     38.66000000    53.41000000    -4.13000000
   C     38.55000000    54.22000000    -2.83000000
   C     40.09000000    53.06000000    -4.53000000
   C     38.96000000    55.69000000    -2.81000000
   H     36.10000000    52.23000000    -2.71000000
   H     38.21000000    51.81000000    -2.80000000
   H     38.17000000    53.94000000    -4.94000000
   H     39.10000000    53.75000000    -2.02000000
   H     37.50000000    54.24000000    -2.55000000
   H     40.18000000    52.86000000    -5.60000000
   H     40.69000000    53.94000000    -4.33000000
   H     40.51000000    52.31000000    -3.85000000
   H     38.82000000    56.02000000    -1.78000000
   H     40.00000000    55.76000000    -3.15000000
   H     38.27000000    56.16000000    -3.51000000
   N     37.61000000    50.97000000    -5.86000000
   C     37.89000000    50.07000000    -6.96000000
   C     39.10000000    50.52000000    -7.78000000
   O     39.51000000    51.67000000    -7.64000000
   C     36.69000000    49.72000000    -7.83000000
   C     36.10000000    50.85000000    -8.67000000
   O     35.72000000    49.15000000    -6.98000000
   H     36.96000000    51.71000000    -6.06000000
   H     38.17000000    49.10000000    -6.55000000
   H     37.00000000    48.92000000    -8.50000000
   H     35.40000000    49.82000000    -6.38000000
   H     36.66000000    51.19000000    -9.55000000
   H     35.12000000    50.62000000    -9.08000000
   H     36.00000000    51.78000000    -8.10000000
   N     39.60000000    49.68000000    -8.70000000
   C     40.76000000    50.03000000    -9.50000000
   C     40.49000000    51.28000000   -10.32000000
   O     39.36000000    51.66000000   -10.61000000
   C     41.16000000    48.81000000   -10.32000000
   C     40.40000000    48.44000000   -11.59000000
   O     42.48000000    49.16000000   -10.70000000
   H     39.20000000    48.76000000    -8.77000000
   H     41.56000000    50.37000000    -8.84000000
   H     41.27000000    47.98000000    -9.63000000
   H     43.07000000    48.88000000    -9.99000000
   H     40.46000000    49.11000000   -12.45000000
   H     40.81000000    47.46000000   -11.83000000
   H     39.34000000    48.28000000   -11.43000000
   N     41.57000000    52.05000000   -10.50000000
   C     41.60000000    53.45000000   -10.88000000
   C     40.85000000    54.42000000    -9.99000000
   O     39.67000000    54.68000000   -10.22000000
   C     41.28000000    53.62000000   -12.37000000
   C     41.54000000    54.99000000   -12.97000000
   C     41.21000000    55.21000000   -14.45000000
   C     41.59000000    54.04000000   -15.35000000
   N     41.45000000    54.51000000   -16.74000000
   H     42.41000000    51.68000000   -10.09000000
   H     42.68000000    53.61000000   -10.92000000
   H     40.23000000    53.38000000   -12.51000000
   H     41.81000000    52.81000000   -12.87000000
   H     42.61000000    55.16000000   -12.94000000
   H     41.03000000    55.85000000   -12.53000000
   H     41.69000000    56.15000000   -14.75000000
   H     40.13000000    55.27000000   -14.56000000
   H     40.83000000    53.26000000   -15.36000000
   H     42.59000000    53.67000000   -15.14000000
   H     40.49000000    54.78000000   -16.92000000
   H     42.01000000    55.31000000   -17.01000000
   H     41.63000000    53.77000000   -17.40000000
   N     41.54000000    55.01000000    -9.01000000
   C     41.06000000    56.10000000    -8.19000000
   C     41.37000000    56.04000000    -6.70000000
   O     40.51000000    56.51000000    -5.95000000
   C     41.60000000    57.39000000    -8.80000000
   C     41.02000000    57.79000000   -10.16000000
   C     39.50000000    57.86000000   -10.11000000
   O     38.80000000    57.91000000   -11.15000000
   O     38.84000000    58.04000000    -9.06000000
   H     42.55000000    54.94000000    -9.10000000
   H     39.98000000    56.14000000    -8.26000000
   H     42.67000000    57.27000000    -9.00000000
   H     41.45000000    58.20000000    -8.09000000
   H     41.40000000    57.13000000   -10.93000000
   H     41.39000000    58.80000000   -10.37000000
   N     42.46000000    55.57000000    -6.09000000
   C     43.52000000    54.73000000    -6.60000000
   H     44.40800000    54.84900000    -5.97900000
   H     43.20000000    53.68800000    -6.58000000
   H     43.75300000    55.02000000    -7.62500000
   H     42.36000000    55.57000000    -5.08000000
  Ca     26.58000000    60.81000000    -3.54200000
   O     27.35000000    62.90000000    -5.20200000
   H     26.83000000    63.12000000    -5.97200000
   H     28.19000000    63.35000000    -5.35200000
   O     24.42000000    60.31000000    -2.07200000
   H     23.61000000    60.73000000    -2.36200000
   H     24.14000000    59.67000000    -1.42200000
   O     26.96000000    60.11000000    -6.27200000
   H     26.34000000    60.29000000    -6.97200000
   H     27.76000000    59.83000000    -6.71200000
   O     24.41000000    61.96000000    -4.96200000
   H     24.31000000    62.90000000    -4.82200000
   H     23.86000000    61.77000000    -5.73200000
   O     25.26000000    58.53000000    -4.06200000
   H     24.57000000    58.31000000    -3.43200000
   H     25.19000000    57.86000000    -4.73200000

Ca 1.00



