%chk=loop2.holoCaM.run82.water1.chk
%nprocshared=20
%mem=10GB
%nosave
#b3lyp/svp scf=(tight,noincore,xqc) Test 
#IOP(5/87=12) Density=Current Pop=(MK,readradii) iop(6/33=2) iop(6/42=6)

loop2.holoCaM.run82.water1 

   -2  1 
   C     35.77000000    61.50000000    35.15000000
   C     35.31000000    60.67000000    36.34000000
   O     36.02000000    59.80000000    36.84000000
   H     36.79100000    61.22200000    34.88700000
   H     35.11300000    61.31400000    34.30100000
   H     35.73800000    62.55800000    35.41000000
   N     34.08000000    60.97000000    36.76000000
   C     33.38000000    60.30000000    37.84000000
   C     33.19000000    58.80000000    37.64000000
   O     32.38000000    58.42000000    36.80000000
   C     32.09000000    61.08000000    38.02000000
   C     31.29000000    60.62000000    39.23000000
   O     31.84000000    59.91000000    40.11000000
   O     30.11000000    60.97000000    39.39000000
   H     33.56000000    61.67000000    36.25000000
   H     34.03000000    60.40000000    38.71000000
   H     31.46000000    60.92000000    37.14000000
   H     32.38000000    62.13000000    38.10000000
   N     33.81000000    58.00000000    38.50000000
   C     34.12000000    56.63000000    38.12000000
   C     33.19000000    55.64000000    38.81000000
   O     33.14000000    54.49000000    38.38000000
   C     35.61000000    56.55000000    38.46000000
   H     34.33000000    58.44000000    39.25000000
   H     34.13000000    56.50000000    37.04000000
   H     36.05000000    57.38000000    37.91000000
   H     35.92000000    56.82000000    39.47000000
   H     36.09000000    55.64000000    38.12000000
   N     32.36000000    56.15000000    39.72000000
   C     31.10000000    55.65000000    40.24000000
   C     29.82000000    56.37000000    39.84000000
   O     28.75000000    55.78000000    39.96000000
   C     31.24000000    55.39000000    41.74000000
   C     31.98000000    56.51000000    42.46000000
   O     31.66000000    57.69000000    42.19000000
   O     32.92000000    56.17000000    43.22000000
   H     32.59000000    57.07000000    40.06000000
   H     30.94000000    54.66000000    39.81000000
   H     31.80000000    54.47000000    41.88000000
   H     30.23000000    55.34000000    42.14000000
   N     29.82000000    57.59000000    39.29000000
   C     28.64000000    58.28000000    38.83000000
   C     27.70000000    58.74000000    39.94000000
   O     26.48000000    58.67000000    39.81000000
   H     30.69000000    58.06000000    39.06000000
   H     28.09000000    57.59000000    38.19000000
   H     28.87000000    59.12000000    38.18000000
   N     28.31000000    59.40000000    40.93000000
   C     27.59000000    59.76000000    42.14000000
   C     27.33000000    61.25000000    42.23000000
   O     26.40000000    61.54000000    42.98000000
   C     28.41000000    59.39000000    43.37000000
   C     29.73000000    60.08000000    43.68000000
   N     30.07000000    60.02000000    44.97000000
   O     30.38000000    60.69000000    42.83000000
   H     29.32000000    59.44000000    40.94000000
   H     26.66000000    59.20000000    42.25000000
   H     28.60000000    58.32000000    43.36000000
   H     27.77000000    59.59000000    44.23000000
   H     29.62000000    59.32000000    45.54000000
   H     30.91000000    60.49000000    45.27000000
   N     28.07000000    62.10000000    41.50000000
   C     27.97000000    63.54000000    41.47000000
   C     28.94000000    64.37000000    42.31000000
   O     28.81000000    65.59000000    42.38000000
   H     28.72000000    61.65000000    40.87000000
   H     27.01000000    63.87000000    41.86000000
   H     28.07000000    63.78000000    40.41000000
   N     30.05000000    63.80000000    42.80000000
   C     31.16000000    64.48000000    43.43000000
   C     32.50000000    63.88000000    43.00000000
   O     32.52000000    62.73000000    42.57000000
   C     31.15000000    64.55000000    44.95000000
   C     29.99000000    65.44000000    45.41000000
   O     30.83000000    63.29000000    45.50000000
   H     30.15000000    62.81000000    42.68000000
   H     31.10000000    65.46000000    42.97000000
   H     32.18000000    64.76000000    45.23000000
   H     29.91000000    63.04000000    45.42000000
   H     29.93000000    65.55000000    46.49000000
   H     30.06000000    66.40000000    44.90000000
   H     29.03000000    64.99000000    45.15000000
   N     33.54000000    64.71000000    43.06000000
   C     34.87000000    64.36000000    42.59000000
   C     35.75000000    63.99000000    43.78000000
   O     35.94000000    64.73000000    44.74000000
   C     35.49000000    65.49000000    41.78000000
   C     34.68000000    65.51000000    40.49000000
   C     36.99000000    65.59000000    41.48000000
   C     35.10000000    64.50000000    39.43000000
   H     33.45000000    65.62000000    43.49000000
   H     34.77000000    63.46000000    41.99000000
   H     35.19000000    66.40000000    42.30000000
   H     34.71000000    66.56000000    40.18000000
   H     33.61000000    65.37000000    40.70000000
   H     37.39000000    64.72000000    40.96000000
   H     37.16000000    66.48000000    40.89000000
   H     37.42000000    65.62000000    42.48000000
   H     36.04000000    64.79000000    38.95000000
   H     35.18000000    63.46000000    39.75000000
   H     34.41000000    64.53000000    38.59000000
   N     36.28000000    62.77000000    43.69000000
   C     37.32000000    62.25000000    44.56000000
   C     38.73000000    62.52000000    44.07000000
   O     38.90000000    63.09000000    42.99000000
   C     37.17000000    60.76000000    44.86000000
   C     35.72000000    60.34000000    45.03000000
   O     35.18000000    59.67000000    44.11000000
   O     35.10000000    60.54000000    46.09000000
   H     36.03000000    62.31000000    42.83000000
   H     37.22000000    62.79000000    45.49000000
   H     37.75000000    60.54000000    45.75000000
   H     37.65000000    60.10000000    44.14000000
   N     39.75000000    62.22000000    44.88000000
   C     41.12000000    62.44000000    44.45000000
   C     41.63000000    61.83000000    43.16000000
   O     42.18000000    62.54000000    42.31000000
   C     42.06000000    62.20000000    45.63000000
   C     43.52000000    62.46000000    45.37000000
   C     43.90000000    63.72000000    44.89000000
   C     44.52000000    61.52000000    45.66000000
   C     45.24000000    64.05000000    44.63000000
   C     45.84000000    61.83000000    45.31000000
   C     46.24000000    63.09000000    44.85000000
   H     39.51000000    61.84000000    45.78000000
   H     41.19000000    63.51000000    44.26000000
   H     41.98000000    61.20000000    46.04000000
   H     41.79000000    62.97000000    46.36000000
   H     43.03000000    64.28000000    44.57000000
   H     44.23000000    60.50000000    45.87000000
   H     45.54000000    64.98000000    44.19000000
   H     46.55000000    61.02000000    45.46000000
   H     47.25000000    63.33000000    44.56000000
   N     41.40000000    60.54000000    42.90000000
   C     41.81000000    59.84000000    41.70000000
   C     40.99000000    60.35000000    40.52000000
   O     41.41000000    60.14000000    39.39000000
   C     41.61000000    58.35000000    41.93000000
   C     40.45000000    58.36000000    42.92000000
   C     40.78000000    59.57000000    43.78000000
   H     42.89000000    59.94000000    41.57000000
   H     41.27000000    57.84000000    41.02000000
   H     42.52000000    58.06000000    42.45000000
   H     39.52000000    58.46000000    42.36000000
   H     40.40000000    57.44000000    43.50000000
   H     39.89000000    59.95000000    44.27000000
   H     41.47000000    59.17000000    44.53000000
   N     39.84000000    61.01000000    40.69000000
   C     39.11000000    61.63000000    39.60000000
   C     39.57000000    63.06000000    39.35000000
   O     39.68000000    63.48000000    38.20000000
   C     37.64000000    61.64000000    40.01000000
   C     37.10000000    60.28000000    40.46000000
   C     35.63000000    60.20000000    40.82000000
   O     35.06000000    61.24000000    41.22000000
   O     34.98000000    59.14000000    40.91000000
   H     39.45000000    61.25000000    41.59000000
   H     39.09000000    61.06000000    38.67000000
   H     37.04000000    62.05000000    39.19000000
   H     37.42000000    62.35000000    40.80000000
   H     37.71000000    59.89000000    41.28000000
   H     37.34000000    59.49000000    39.75000000
   N     40.02000000    63.80000000    40.36000000
   C     40.53000000    65.15000000    40.35000000
   H     41.49200000    65.17100000    39.83800000
   H     39.82700000    65.80100000    39.82900000
   H     40.65700000    65.49800000    41.37500000
   H     40.11000000    63.34000000    41.26000000
  Ca     32.96000000    60.09000000    42.46000000
   O     32.54000000    61.18000000    45.00000000
   H     32.10000000    61.88000000    45.48000000
   H     33.40000000    61.12000000    45.40000000

Ca 1.00



