%chk=loop4.holoCaM.run97.water2.chk
%nprocshared=20
%mem=10GB
%nosave
#b3lyp/svp scf=(tight,noincore,xqc) Test 
#IOP(5/87=12) Density=Current Pop=(MK,readradii) iop(6/33=2) iop(6/42=6)

loop4.holoCaM.run97.water2 

   -3  1 
   C     53.40000000    38.24000000     2.15000000
   C     54.07000000    39.41000000     2.85000000
   O     53.59000000    40.54000000     2.73000000
   H     52.47100000    38.57600000     1.69000000
   H     54.06400000    37.84800000     1.38000000
   H     53.18300000    37.45700000     2.87700000
   N     55.13000000    39.20000000     3.64000000
   C     55.96000000    40.14000000     4.35000000
   C     57.17000000    40.59000000     3.54000000
   O     58.08000000    39.81000000     3.28000000
   C     56.39000000    39.58000000     5.70000000
   C     57.54000000    40.28000000     6.41000000
   O     58.38000000    39.61000000     7.06000000
   O     57.48000000    41.53000000     6.47000000
   H     55.39000000    38.24000000     3.80000000
   H     55.27000000    40.97000000     4.45000000
   H     56.63000000    38.54000000     5.50000000
   H     55.59000000    39.59000000     6.44000000
   N     57.16000000    41.86000000     3.12000000
   C     58.04000000    42.43000000     2.12000000
   C     59.40000000    42.73000000     2.73000000
   O     60.41000000    42.37000000     2.12000000
   C     57.36000000    43.56000000     1.35000000
   C     56.00000000    43.13000000     0.80000000
   C     58.25000000    43.96000000     0.18000000
   C     56.04000000    41.98000000    -0.20000000
   H     56.41000000    42.43000000     3.47000000
   H     58.18000000    41.70000000     1.32000000
   H     57.20000000    44.38000000     2.05000000
   H     55.49000000    43.99000000     0.36000000
   H     55.37000000    42.68000000     1.57000000
   H     58.45000000    43.11000000    -0.47000000
   H     57.85000000    44.85000000    -0.30000000
   H     59.18000000    44.39000000     0.56000000
   H     56.68000000    41.15000000     0.09000000
   H     55.02000000    41.59000000    -0.26000000
   H     56.25000000    42.38000000    -1.19000000
   N     59.46000000    43.25000000     3.96000000
   C     60.66000000    43.76000000     4.59000000
   C     61.17000000    42.82000000     5.67000000
   O     62.22000000    43.16000000     6.21000000
   C     60.48000000    45.21000000     5.02000000
   C     59.25000000    45.56000000     5.84000000
   O     59.23000000    46.61000000     6.52000000
   O     58.34000000    44.71000000     5.90000000
   H     58.59000000    43.58000000     4.36000000
   H     61.47000000    43.77000000     3.86000000
   H     60.30000000    45.82000000     4.13000000
   H     61.44000000    45.48000000     5.46000000
   N     60.58000000    41.63000000     5.84000000
   C     61.33000000    40.55000000     6.44000000
   C     61.40000000    40.66000000     7.96000000
   O     62.39000000    40.30000000     8.59000000
   H     59.66000000    41.46000000     5.45000000
   H     62.30000000    40.58000000     5.94000000
   H     60.91000000    39.57000000     6.21000000
   N     60.30000000    41.02000000     8.63000000
   C     60.19000000    41.16000000    10.07000000
   C     59.24000000    40.16000000    10.70000000
   O     59.08000000    40.16000000    11.92000000
   C     59.78000000    42.59000000    10.44000000
   C     58.50000000    42.95000000     9.70000000
   O     58.43000000    43.99000000     9.01000000
   O     57.51000000    42.19000000     9.71000000
   H     59.40000000    41.11000000     8.19000000
   H     61.18000000    41.02000000    10.50000000
   H     60.58000000    43.27000000    10.16000000
   H     59.60000000    42.72000000    11.50000000
   N     58.66000000    39.25000000     9.90000000
   C     57.86000000    38.11000000    10.29000000
   C     56.36000000    38.37000000    10.26000000
   O     55.58000000    37.46000000    10.53000000
   H     58.73000000    39.32000000     8.90000000
   H     58.11000000    37.69000000    11.27000000
   H     58.02000000    37.39000000     9.49000000
   N     55.89000000    39.58000000     9.98000000
   C     54.48000000    39.91000000    10.07000000
   C     54.06000000    40.84000000     8.95000000
   O     54.80000000    41.68000000     8.43000000
   C     54.08000000    40.67000000    11.33000000
   C     54.20000000    39.80000000    12.58000000
   C     53.66000000    40.62000000    13.74000000
   N     54.44000000    41.55000000    14.30000000
   O     52.55000000    40.56000000    14.25000000
   H     56.53000000    40.33000000     9.76000000
   H     53.85000000    39.02000000    10.00000000
   H     53.01000000    40.84000000    11.21000000
   H     54.68000000    41.58000000    11.41000000
   H     55.24000000    39.62000000    12.83000000
   H     53.63000000    38.87000000    12.47000000
   H     55.35000000    41.85000000    13.96000000
   H     53.95000000    42.09000000    15.00000000
   N     52.79000000    40.75000000     8.54000000
   C     52.18000000    41.67000000     7.60000000
   C     51.34000000    42.74000000     8.29000000
   O     50.58000000    42.48000000     9.22000000
   C     51.27000000    40.97000000     6.59000000
   C     52.25000000    40.43000000     5.55000000
   C     50.39000000    39.88000000     7.18000000
   H     52.21000000    40.21000000     9.17000000
   H     52.94000000    42.28000000     7.12000000
   H     50.66000000    41.68000000     6.03000000
   H     52.94000000    41.18000000     5.16000000
   H     52.83000000    39.56000000     5.86000000
   H     51.63000000    40.18000000     4.69000000
   H     50.82000000    39.31000000     8.01000000
   H     49.47000000    40.40000000     7.44000000
   H     50.20000000    39.18000000     6.37000000
   N     51.52000000    43.99000000     7.87000000
   C     50.83000000    45.21000000     8.26000000
   C     49.79000000    45.60000000     7.22000000
   O     49.79000000    45.06000000     6.11000000
   C     51.78000000    46.38000000     8.51000000
   C     52.08000000    47.34000000     7.37000000
   N     52.73000000    46.84000000     6.32000000
   O     51.56000000    48.44000000     7.19000000
   H     52.36000000    44.18000000     7.35000000
   H     50.31000000    45.01000000     9.20000000
   H     52.69000000    45.94000000     8.93000000
   H     51.48000000    47.14000000     9.23000000
   H     53.09000000    45.90000000     6.42000000
   H     53.07000000    47.46000000     5.60000000
   N     48.97000000    46.63000000     7.43000000
   C     47.97000000    47.16000000     6.52000000
   C     48.49000000    47.36000000     5.10000000
   O     47.86000000    46.89000000     4.16000000
   C     47.31000000    48.44000000     7.03000000
   C     46.24000000    48.82000000     6.03000000
   C     44.97000000    48.23000000     6.08000000
   C     46.54000000    49.76000000     5.04000000
   C     44.06000000    48.44000000     5.03000000
   C     45.61000000    50.05000000     4.04000000
   C     44.40000000    49.34000000     4.00000000
   O     43.47000000    49.54000000     3.02000000
   H     49.02000000    47.08000000     8.32000000
   H     47.19000000    46.40000000     6.42000000
   H     48.12000000    49.16000000     7.09000000
   H     46.86000000    48.34000000     8.01000000
   H     44.65000000    47.53000000     6.83000000
   H     47.46000000    50.34000000     5.08000000
   H     43.16000000    47.84000000     5.01000000
   H     46.05000000    50.74000000     3.33000000
   H     43.80000000    50.15000000     2.36000000
   N     49.70000000    47.90000000     4.92000000
   C     50.36000000    48.19000000     3.66000000
   C     50.97000000    46.97000000     2.99000000
   O     51.57000000    47.01000000     1.91000000
   C     51.40000000    49.27000000     3.94000000
   C     50.79000000    50.65000000     4.21000000
   C     50.52000000    51.41000000     2.92000000
   O     49.95000000    50.82000000     1.98000000
   O     50.76000000    52.64000000     2.91000000
   H     50.23000000    48.10000000     5.76000000
   H     49.56000000    48.67000000     3.09000000
   H     52.00000000    49.51000000     3.06000000
   H     52.07000000    49.02000000     4.76000000
   H     51.45000000    51.26000000     4.82000000
   H     49.89000000    50.53000000     4.82000000
   N     50.85000000    45.80000000     3.61000000
   C     51.15000000    44.52000000     2.99000000
   C     49.91000000    43.65000000     2.88000000
   O     49.83000000    42.81000000     1.98000000
   C     52.21000000    43.80000000     3.82000000
   C     53.51000000    44.60000000     3.89000000
   C     54.33000000    43.99000000     5.02000000
   O     53.94000000    44.16000000     6.19000000
   O     55.49000000    43.60000000     4.75000000
   H     50.41000000    45.86000000     4.52000000
   H     51.52000000    44.55000000     1.97000000
   H     52.35000000    42.80000000     3.43000000
   H     51.71000000    43.64000000     4.77000000
   H     53.36000000    45.64000000     4.19000000
   H     54.00000000    44.68000000     2.92000000
   N     48.85000000    43.92000000     3.64000000
   C     47.57000000    43.24000000     3.51000000
   H     46.83200000    43.93000000     3.10100000
   H     47.67800000    42.38600000     2.84100000
   H     47.24000000    42.89500000     4.49000000
   H     48.92000000    44.61000000     4.38000000
  Ca     56.34000000    43.51000000     7.43000000
   O     56.31000000    46.41000000     7.26000000
   H     55.86000000    46.83000000     7.99000000
   H     57.15000000    46.86000000     7.20000000
   O     55.34000000    44.80000000     9.49000000
   H     54.93000000    45.66000000     9.50000000
   H     55.93000000    44.80000000    10.24000000

Ca 1.00



