%chk=loop1.apoCaM-CA-Ng.Init295.run50.water6.chk
%nprocshared=20
%mem=10GB
%nosave
#b3lyp/svp scf=(tight,noincore,xqc) Test 
#IOP(5/87=12) Density=Current Pop=(MK,readradii) iop(6/33=2) iop(6/42=6)

loop1.apoCaM-CA-Ng.Init295.run50.water6 

   0  1 
   C     91.96000000    76.44000000    28.25000000
   C     91.93000000    77.29000000    26.98000000
   O     91.88000000    78.51000000    27.06000000
   H     91.89400000    77.09000000    29.12300000
   H     91.11600000    75.75000000    28.24600000
   H     92.89100000    75.87500000    28.28800000
   N     91.97000000    76.70000000    25.78000000
   C     92.23000000    77.42000000    24.55000000
   C     91.21000000    78.49000000    24.17000000
   O     90.02000000    78.24000000    24.03000000
   C     92.51000000    76.41000000    23.45000000
   C     92.95000000    77.09000000    22.16000000
   O     94.14000000    77.36000000    21.87000000
   O     92.06000000    77.44000000    21.35000000
   H     91.95000000    75.69000000    25.72000000
   H     93.16000000    77.92000000    24.79000000
   H     91.59000000    75.86000000    23.26000000
   H     93.39000000    75.83000000    23.75000000
   N     91.70000000    79.70000000    23.88000000
   C     90.98000000    80.86000000    23.38000000
   C     91.27000000    80.99000000    21.90000000
   O     90.72000000    81.91000000    21.29000000
   C     91.21000000    82.19000000    24.09000000
   C     91.10000000    81.97000000    25.60000000
   C     91.72000000    83.16000000    26.32000000
   C     90.96000000    84.46000000    26.08000000
   N     91.41000000    85.48000000    27.04000000
   H     92.67000000    79.89000000    24.06000000
   H     89.92000000    80.64000000    23.46000000
   H     90.49000000    82.93000000    23.73000000
   H     92.16000000    82.65000000    23.83000000
   H     91.56000000    81.05000000    25.96000000
   H     90.05000000    81.84000000    25.83000000
   H     92.79000000    83.30000000    26.14000000
   H     91.70000000    83.06000000    27.40000000
   H     89.88000000    84.33000000    26.17000000
   H     91.17000000    84.78000000    25.06000000
   H     91.62000000    85.12000000    27.96000000
   H     92.27000000    85.93000000    26.76000000
   H     90.70000000    86.19000000    27.11000000
   N     92.13000000    80.23000000    21.22000000
   C     92.58000000    80.39000000    19.85000000
   C     91.63000000    79.84000000    18.80000000
   O     91.57000000    80.38000000    17.70000000
   C     93.96000000    79.81000000    19.58000000
   C     95.11000000    80.30000000    20.45000000
   O     95.18000000    81.41000000    21.01000000
   O     96.07000000    79.50000000    20.52000000
   H     92.49000000    79.47000000    21.79000000
   H     92.65000000    81.46000000    19.64000000
   H     94.09000000    79.92000000    18.51000000
   H     93.98000000    78.73000000    19.76000000
   N     90.83000000    78.82000000    19.15000000
   C     89.72000000    78.32000000    18.36000000
   C     90.07000000    77.46000000    17.16000000
   O     89.16000000    76.96000000    16.51000000
   H     91.04000000    78.34000000    20.01000000
   H     89.03000000    79.10000000    18.03000000
   H     89.14000000    77.70000000    19.05000000
   N     91.32000000    77.26000000    16.73000000
   C     91.65000000    76.53000000    15.53000000
   C     91.85000000    75.05000000    15.82000000
   O     91.52000000    74.21000000    14.98000000
   C     92.92000000    77.06000000    14.87000000
   C     92.97000000    78.56000000    14.64000000
   O     93.25000000    79.33000000    15.59000000
   O     92.54000000    79.06000000    13.58000000
   H     91.98000000    77.93000000    17.12000000
   H     90.88000000    76.58000000    14.76000000
   H     93.06000000    76.61000000    13.89000000
   H     93.79000000    76.87000000    15.51000000
   N     92.42000000    74.74000000    16.99000000
   C     92.51000000    73.42000000    17.60000000
   C     93.25000000    72.48000000    16.67000000
   O     93.09000000    71.28000000    16.89000000
   H     92.61000000    75.52000000    17.60000000
   H     91.52000000    73.02000000    17.82000000
   H     93.17000000    73.47000000    18.46000000
   N     93.95000000    72.95000000    15.63000000
   C     94.51000000    72.11000000    14.60000000
   C     95.43000000    70.94000000    14.93000000
   O     95.69000000    70.12000000    14.06000000
   C     93.51000000    71.74000000    13.50000000
   C     92.34000000    70.84000000    13.89000000
   O     93.00000000    72.98000000    13.07000000
   H     93.93000000    73.94000000    15.43000000
   H     95.24000000    72.76000000    14.11000000
   H     94.10000000    71.29000000    12.70000000
   H     92.45000000    73.24000000    13.82000000
   H     92.68000000    69.81000000    13.95000000
   H     91.96000000    71.05000000    14.89000000
   H     91.57000000    70.82000000    13.11000000
   N     95.92000000    70.79000000    16.16000000
   C     96.83000000    69.74000000    16.58000000
   C     96.18000000    68.36000000    16.53000000
   O     96.84000000    67.36000000    16.28000000
   C     97.44000000    70.02000000    17.95000000
   C     96.47000000    70.36000000    19.08000000
   C     98.34000000    71.24000000    17.80000000
   C     97.13000000    70.63000000    20.44000000
   H     95.60000000    71.52000000    16.78000000
   H     97.65000000    69.62000000    15.88000000
   H     98.04000000    69.13000000    18.16000000
   H     95.77000000    69.55000000    19.30000000
   H     95.96000000    71.22000000    18.66000000
   H     97.68000000    72.00000000    17.37000000
   H     98.90000000    71.57000000    18.68000000
   H     99.06000000    71.12000000    17.00000000
   H     97.59000000    71.62000000    20.48000000
   H     96.42000000    70.55000000    21.26000000
   H     97.91000000    69.88000000    20.48000000
   N     94.85000000    68.29000000    16.64000000
   C     94.11000000    67.05000000    16.47000000
   C     94.46000000    66.03000000    17.54000000
   O     94.45000000    66.47000000    18.69000000
   C     92.60000000    67.17000000    16.28000000
   C     91.78000000    65.89000000    16.13000000
   O     92.11000000    67.80000000    17.44000000
   H     94.37000000    69.16000000    16.77000000
   H     94.37000000    66.62000000    15.50000000
   H     92.26000000    67.76000000    15.42000000
   H     91.31000000    68.26000000    17.20000000
   H     90.84000000    66.19000000    15.66000000
   H     92.25000000    65.14000000    15.50000000
   H     91.71000000    65.47000000    17.13000000
   N     94.98000000    64.85000000    17.20000000
   C     95.23000000    63.77000000    18.13000000
   C     96.55000000    63.93000000    18.88000000
   O     96.75000000    63.52000000    20.02000000
   C     95.10000000    62.42000000    17.43000000
   C     95.61000000    61.24000000    18.24000000
   O     95.65000000    62.27000000    16.14000000
   H     95.02000000    64.61000000    16.22000000
   H     94.50000000    63.75000000    18.94000000
   H     94.05000000    62.19000000    17.25000000
   H     95.01000000    61.75000000    15.65000000
   H     95.29000000    60.32000000    17.75000000
   H     96.69000000    61.16000000    18.30000000
   H     95.16000000    61.21000000    19.24000000
   N     97.48000000    64.71000000    18.33000000
   C     98.71000000    65.09000000    19.00000000
   C     98.56000000    66.11000000    20.11000000
   O     97.75000000    67.02000000    20.00000000
   C     99.64000000    65.72000000    17.97000000
   C    100.15000000    64.71000000    16.94000000
   C    101.18000000    65.24000000    15.94000000
   C    101.43000000    64.26000000    14.80000000
   N    102.07000000    64.97000000    13.68000000
   H     97.31000000    65.09000000    17.41000000
   H     99.19000000    64.21000000    19.42000000
   H    100.53000000    65.99000000    18.54000000
   H     99.16000000    66.59000000    17.51000000
   H     99.27000000    64.54000000    16.32000000
   H    100.49000000    63.76000000    17.34000000
   H    102.05000000    65.43000000    16.57000000
   H    100.71000000    66.14000000    15.54000000
   H    100.47000000    63.78000000    14.61000000
   H    102.14000000    63.52000000    15.15000000
   H    102.35000000    64.33000000    12.94000000
   H    101.49000000    65.71000000    13.32000000
   H    102.91000000    65.42000000    14.01000000
   N     99.43000000    66.09000000    21.13000000
   C     99.45000000    67.00000000    22.26000000
   C     99.36000000    66.19000000    23.55000000
   O    100.20000000    65.32000000    23.75000000
   C    100.74000000    67.82000000    22.18000000
   C    100.64000000    68.74000000    20.96000000
   C    101.95000000    69.37000000    20.52000000
   O    102.14000000    70.60000000    20.70000000
   O    102.80000000    68.59000000    20.04000000
   H    100.05000000    65.30000000    21.14000000
   H     98.61000000    67.68000000    22.19000000
   H    101.55000000    67.12000000    21.99000000
   H    100.92000000    68.35000000    23.11000000
   H     99.91000000    69.52000000    21.19000000
   H    100.27000000    68.28000000    20.05000000
   N     98.61000000    66.50000000    24.60000000
   C     97.53000000    67.47000000    24.68000000
   H     96.66100000    67.00800000    25.14900000
   H     97.85200000    68.32500000    25.27500000
   H     97.26600000    67.80400000    23.67700000
   H     98.63000000    65.97000000    25.46000000
  Ca     91.88000000    81.52000000    15.31000000
   O     89.94000000    79.99000000    14.64000000
   H     88.98000000    79.93000000    14.62000000
   H     90.24000000    79.20000000    14.20000000
   O     94.24000000    82.24000000    14.13000000
   H     94.17000000    82.77000000    13.34000000
   H     95.17000000    82.02000000    14.18000000
   O     93.32000000    82.54000000    17.29000000
   H     93.13000000    83.09000000    18.05000000
   H     94.27000000    82.42000000    17.30000000
   O     89.78000000    82.88000000    16.53000000
   H     90.06000000    83.23000000    17.38000000
   H     88.94000000    82.46000000    16.72000000
   O     91.31000000    81.63000000    12.77000000
   H     91.83000000    82.05000000    12.08000000
   H     90.42000000    81.58000000    12.40000000
   O     91.95000000    84.16000000    14.87000000
   H     92.69000000    84.61000000    14.47000000
   H     91.26000000    84.83000000    14.94000000

Ca 1.00



