%chk=loop2.apoCaM-CA-Ng.Init295.run32.water4.chk
%nprocshared=20
%mem=10GB
%nosave
#b3lyp/svp scf=(tight,noincore,xqc) Test 
#IOP(5/87=12) Density=Current Pop=(MK,readradii) iop(6/33=2) iop(6/42=6)

loop2.apoCaM-CA-Ng.Init295.run32.water4 

   -2  1 
   C     87.19000000    78.42000000    58.91000000
   C     88.51000000    78.53000000    58.15000000
   O     88.77000000    79.53000000    57.49000000
   H     86.40300000    78.10400000    58.22600000
   H     87.29100000    77.68700000    59.71000000
   H     86.93300000    79.39000000    59.33500000
   N     89.27000000    77.43000000    58.14000000
   C     90.28000000    77.12000000    57.15000000
   C     91.63000000    77.74000000    57.49000000
   O     92.68000000    77.11000000    57.42000000
   C     90.30000000    75.61000000    56.92000000
   C     90.96000000    75.31000000    55.58000000
   O     91.04000000    76.20000000    54.71000000
   O     91.31000000    74.14000000    55.34000000
   H     88.97000000    76.75000000    58.82000000
   H     90.10000000    77.71000000    56.25000000
   H     89.32000000    75.14000000    56.91000000
   H     90.95000000    75.22000000    57.70000000
   N     91.53000000    78.97000000    58.00000000
   C     92.50000000    79.99000000    58.37000000
   C     91.84000000    80.99000000    59.30000000
   O     90.62000000    81.15000000    59.38000000
   C     93.13000000    80.63000000    57.13000000
   H     90.58000000    79.30000000    58.00000000
   H     93.29000000    79.52000000    58.96000000
   H     92.36000000    81.21000000    56.61000000
   H     93.75000000    81.45000000    57.48000000
   H     93.58000000    79.91000000    56.45000000
   N     92.56000000    81.72000000    60.16000000
   C     93.96000000    81.57000000    60.49000000
   C     94.30000000    80.44000000    61.45000000
   O     93.46000000    80.14000000    62.30000000
   C     94.46000000    82.86000000    61.14000000
   C     94.35000000    84.12000000    60.29000000
   O     94.88000000    85.15000000    60.77000000
   O     93.72000000    84.21000000    59.22000000
   H     92.07000000    82.19000000    60.91000000
   H     94.50000000    81.39000000    59.56000000
   H     95.47000000    82.71000000    61.51000000
   H     93.81000000    83.01000000    62.00000000
   N     95.46000000    79.84000000    61.19000000
   C     95.79000000    78.62000000    61.89000000
   C     94.93000000    77.42000000    61.54000000
   O     94.25000000    77.52000000    60.52000000
   H     96.05000000    80.08000000    60.41000000
   H     95.63000000    78.90000000    62.94000000
   H     96.85000000    78.38000000    61.78000000
   N     94.96000000    76.31000000    62.27000000
   C     95.70000000    76.12000000    63.50000000
   C     94.94000000    76.59000000    64.73000000
   O     95.59000000    76.62000000    65.77000000
   C     96.02000000    74.63000000    63.57000000
   C     96.73000000    73.91000000    62.43000000
   N     95.96000000    73.05000000    61.76000000
   O     97.93000000    74.04000000    62.19000000
   H     94.47000000    75.50000000    61.89000000
   H     96.67000000    76.62000000    63.39000000
   H     95.04000000    74.21000000    63.76000000
   H     96.58000000    74.48000000    64.50000000
   H     95.02000000    72.87000000    62.08000000
   H     96.38000000    72.52000000    61.01000000
   N     93.68000000    77.03000000    64.63000000
   C     92.92000000    77.67000000    65.68000000
   C     93.38000000    79.08000000    66.01000000
   O     93.29000000    79.52000000    67.16000000
   H     93.11000000    76.93000000    63.80000000
   H     93.18000000    77.13000000    66.60000000
   H     91.86000000    77.53000000    65.48000000
   N     93.98000000    79.89000000    65.13000000
   C     94.62000000    81.14000000    65.46000000
   C     93.68000000    82.34000000    65.39000000
   O     93.88000000    83.30000000    64.66000000
   C     95.90000000    81.41000000    64.67000000
   C     96.72000000    82.57000000    65.21000000
   O     96.67000000    80.23000000    64.69000000
   H     93.93000000    79.58000000    64.17000000
   H     94.95000000    81.15000000    66.50000000
   H     95.60000000    81.59000000    63.63000000
   H     97.42000000    80.45000000    64.13000000
   H     97.55000000    82.88000000    64.57000000
   H     96.22000000    83.54000000    65.20000000
   H     97.14000000    82.36000000    66.19000000
   N     92.52000000    82.22000000    66.04000000
   C     91.38000000    83.02000000    65.64000000
   C     91.09000000    84.07000000    66.70000000
   O     91.55000000    83.93000000    67.83000000
   C     90.26000000    82.05000000    65.28000000
   C     90.66000000    81.08000000    64.17000000
   C     89.77000000    81.16000000    66.43000000
   C     89.50000000    80.47000000    63.38000000
   H     92.36000000    81.45000000    66.68000000
   H     91.60000000    83.58000000    64.73000000
   H     89.39000000    82.62000000    64.97000000
   H     91.26000000    80.25000000    64.55000000
   H     91.32000000    81.63000000    63.50000000
   H     90.55000000    80.53000000    66.86000000
   H     89.40000000    81.75000000    67.27000000
   H     88.96000000    80.49000000    66.15000000
   H     88.94000000    81.28000000    62.91000000
   H     89.87000000    79.76000000    62.64000000
   H     88.74000000    79.99000000    64.00000000
   N     90.17000000    85.01000000    66.51000000
   C     89.77000000    86.02000000    67.47000000
   C     88.31000000    86.40000000    67.28000000
   O     87.80000000    86.70000000    66.20000000
   C     90.65000000    87.26000000    67.40000000
   C     90.97000000    87.61000000    65.95000000
   O     91.97000000    87.09000000    65.41000000
   O     90.29000000    88.36000000    65.23000000
   H     89.79000000    85.06000000    65.57000000
   H     90.02000000    85.57000000    68.43000000
   H     91.63000000    87.00000000    67.82000000
   H     90.27000000    88.15000000    67.89000000
   N     87.62000000    86.59000000    68.41000000
   C     86.32000000    87.21000000    68.45000000
   C     85.32000000    86.25000000    67.83000000
   O     85.36000000    85.05000000    68.10000000
   C     85.96000000    87.73000000    69.84000000
   C     84.66000000    88.49000000    69.84000000
   C     83.49000000    87.79000000    70.15000000
   C     84.60000000    89.85000000    69.51000000
   C     82.27000000    88.46000000    70.04000000
   C     83.39000000    90.53000000    69.36000000
   C     82.22000000    89.81000000    69.67000000
   H     88.11000000    86.38000000    69.28000000
   H     86.34000000    88.12000000    67.86000000
   H     86.78000000    88.31000000    70.26000000
   H     85.86000000    86.83000000    70.46000000
   H     83.48000000    86.74000000    70.41000000
   H     85.45000000    90.46000000    69.23000000
   H     81.37000000    87.89000000    70.20000000
   H     83.34000000    91.57000000    69.07000000
   H     81.27000000    90.31000000    69.53000000
   N     84.52000000    86.77000000    66.88000000
   C     83.42000000    86.02000000    66.32000000
   C     83.87000000    84.91000000    65.38000000
   O     83.11000000    84.10000000    64.87000000
   C     82.50000000    87.13000000    65.80000000
   C     83.42000000    88.25000000    65.31000000
   C     84.51000000    88.13000000    66.38000000
   H     82.95000000    85.51000000    67.16000000
   H     81.82000000    86.76000000    65.03000000
   H     81.89000000    87.57000000    66.58000000
   H     83.72000000    87.93000000    64.32000000
   H     82.97000000    89.24000000    65.33000000
   H     85.41000000    88.40000000    65.84000000
   H     84.28000000    88.78000000    67.21000000
   N     85.19000000    84.81000000    65.15000000
   C     85.75000000    83.87000000    64.21000000
   C     85.65000000    82.50000000    64.87000000
   O     85.33000000    81.50000000    64.23000000
   C     87.21000000    84.24000000    63.96000000
   C     87.36000000    85.45000000    63.04000000
   C     88.77000000    85.99000000    62.89000000
   O     89.73000000    85.39000000    63.43000000
   O     88.98000000    86.98000000    62.15000000
   H     85.80000000    85.47000000    65.61000000
   H     85.16000000    83.79000000    63.30000000
   H     87.62000000    83.36000000    63.46000000
   H     87.73000000    84.42000000    64.90000000
   H     86.74000000    86.26000000    63.44000000
   H     86.97000000    85.09000000    62.09000000
   N     85.82000000    82.39000000    66.19000000
   C     85.64000000    81.23000000    67.04000000
   H     84.62000000    80.86100000    66.93800000
   H     86.34000000    80.44900000    66.74300000
   H     85.82400000    81.50700000    68.07800000
   H     86.09000000    83.23000000    66.66000000
  Ca     91.44000000    87.43000000    62.90000000
   O     93.45000000    87.99000000    61.13000000
   H     93.88000000    87.94000000    60.27000000
   H     93.99000000    88.60000000    61.63000000
   O     93.60000000    85.78000000    62.99000000
   H     93.73000000    84.97000000    63.47000000
   H     94.07000000    85.65000000    62.17000000
   O     91.44000000    85.80000000    60.42000000
   H     92.20000000    85.49000000    59.92000000
   H     90.88000000    86.22000000    59.76000000
   O     90.66000000    89.34000000    61.38000000
   H     90.51000000    89.19000000    60.45000000
   H     90.12000000    90.10000000    61.60000000

Ca 1.00



