%chk=loop1.apoCaM-CA-Ng.Init31.run36.water4.chk
%nprocshared=20
%mem=10GB
%nosave
#b3lyp/svp scf=(tight,noincore,xqc) Test 
#IOP(5/87=12) Density=Current Pop=(MK,readradii) iop(6/33=2) iop(6/42=6)

loop1.apoCaM-CA-Ng.Init31.run36.water4 

   0  1 
   C     97.64000000    87.85000000    85.90000000
   C     98.56000000    88.59000000    84.93000000
   O     99.45000000    89.31000000    85.36000000
   H     96.68000000    87.66300000    85.41800000
   H     98.09600000    86.90100000    86.18200000
   H     97.48600000    88.45800000    86.79100000
   N     98.46000000    88.34000000    83.62000000
   C     99.38000000    88.81000000    82.61000000
   C     98.72000000    89.72000000    81.59000000
   O     97.50000000    89.83000000    81.53000000
   C    100.05000000    87.54000000    82.09000000
   C    101.38000000    87.70000000    81.36000000
   O    101.91000000    88.82000000    81.25000000
   O    101.88000000    86.75000000    80.72000000
   H     97.91000000    87.52000000    83.39000000
   H    100.12000000    89.38000000    83.18000000
   H     99.32000000    86.97000000    81.53000000
   H    100.37000000    86.93000000    82.94000000
   N     99.53000000    90.19000000    80.64000000
   C     99.21000000    90.91000000    79.43000000
   C     98.29000000    90.11000000    78.52000000
   O     97.19000000    90.59000000    78.25000000
   C    100.46000000    91.48000000    78.78000000
   C    100.18000000    92.20000000    77.46000000
   C    101.45000000    92.65000000    76.76000000
   C    101.24000000    93.52000000    75.52000000
   N    102.50000000    94.10000000    75.01000000
   H    100.52000000    89.99000000    80.74000000
   H     98.66000000    91.81000000    79.71000000
   H    101.23000000    90.72000000    78.65000000
   H    101.01000000    92.07000000    79.51000000
   H     99.56000000    93.09000000    77.57000000
   H     99.67000000    91.50000000    76.79000000
   H    101.99000000    91.76000000    76.46000000
   H    102.02000000    93.28000000    77.44000000
   H    100.68000000    94.41000000    75.83000000
   H    100.68000000    93.00000000    74.74000000
   H    103.04000000    94.50000000    75.76000000
   H    103.06000000    93.32000000    74.71000000
   H    102.35000000    94.66000000    74.19000000
   N     98.56000000    88.89000000    78.04000000
   C     99.77000000    88.09000000    78.02000000
   C     99.43000000    86.61000000    78.00000000
   O     98.43000000    86.19000000    77.43000000
   C    100.49000000    88.46000000    76.72000000
   C    101.93000000    88.00000000    76.82000000
   O    102.57000000    88.41000000    77.81000000
   O    102.37000000    87.25000000    75.92000000
   H     97.85000000    88.55000000    77.41000000
   H    100.40000000    88.42000000    78.84000000
   H    100.48000000    89.55000000    76.81000000
   H     99.96000000    87.95000000    75.92000000
   N    100.26000000    85.79000000    78.65000000
   C    100.16000000    84.35000000    78.51000000
   C    101.13000000    83.70000000    79.48000000
   O    100.77000000    83.30000000    80.59000000
   H    101.02000000    86.19000000    79.18000000
   H    100.27000000    83.93000000    77.51000000
   H     99.20000000    83.91000000    78.78000000
   N    102.40000000    83.67000000    79.07000000
   C    103.46000000    83.01000000    79.81000000
   C    103.51000000    81.53000000    79.47000000
   O    103.08000000    81.07000000    78.42000000
   C    104.84000000    83.60000000    79.54000000
   C    104.80000000    85.13000000    79.54000000
   O    104.73000000    85.69000000    80.65000000
   O    104.72000000    85.76000000    78.47000000
   H    102.49000000    83.85000000    78.08000000
   H    103.21000000    83.12000000    80.86000000
   H    105.20000000    83.29000000    78.56000000
   H    105.58000000    83.27000000    80.26000000
   N    104.09000000    80.67000000    80.32000000
   C    104.61000000    80.88000000    81.65000000
   C    106.13000000    80.96000000    81.63000000
   O    106.72000000    81.51000000    82.56000000
   H    104.00000000    79.69000000    80.10000000
   H    104.24000000    80.10000000    82.31000000
   H    104.36000000    81.87000000    82.05000000
   N    106.78000000    80.34000000    80.64000000
   C    108.20000000    80.06000000    80.53000000
   C    108.61000000    79.29000000    81.78000000
   O    109.28000000    79.79000000    82.68000000
   C    109.06000000    81.27000000    80.21000000
   C    108.71000000    81.90000000    78.86000000
   O    110.42000000    80.99000000    80.01000000
   H    106.20000000    80.02000000    79.88000000
   H    108.29000000    79.34000000    79.72000000
   H    109.08000000    82.09000000    80.94000000
   H    110.97000000    81.78000000    79.98000000
   H    108.55000000    81.11000000    78.12000000
   H    107.81000000    82.50000000    78.97000000
   H    109.55000000    82.55000000    78.62000000
   N    108.16000000    78.04000000    81.83000000
   C    108.59000000    77.02000000    82.77000000
   C    110.06000000    76.64000000    82.73000000
   O    110.34000000    75.45000000    82.60000000
   C    108.09000000    77.28000000    84.19000000
   C    106.65000000    77.78000000    84.36000000
   C    108.37000000    76.11000000    85.13000000
   C    105.58000000    76.84000000    83.82000000
   H    107.50000000    77.78000000    81.11000000
   H    108.01000000    76.17000000    82.41000000
   H    108.74000000    78.06000000    84.59000000
   H    106.55000000    78.77000000    83.93000000
   H    106.39000000    78.05000000    85.38000000
   H    109.44000000    76.03000000    85.31000000
   H    107.91000000    76.30000000    86.09000000
   H    107.97000000    75.13000000    84.84000000
   H    104.62000000    76.98000000    84.32000000
   H    105.51000000    77.10000000    82.76000000
   H    105.89000000    75.80000000    83.93000000
   N    110.98000000    77.59000000    82.91000000
   C    112.41000000    77.39000000    82.98000000
   C    112.96000000    78.02000000    84.25000000
   O    112.41000000    79.00000000    84.74000000
   C    113.16000000    77.97000000    81.78000000
   C    112.75000000    79.42000000    81.58000000
   O    112.91000000    77.29000000    80.57000000
   H    110.71000000    78.57000000    82.93000000
   H    112.65000000    76.32000000    82.95000000
   H    114.23000000    77.83000000    81.95000000
   H    113.50000000    77.60000000    79.89000000
   H    113.02000000    79.76000000    80.58000000
   H    111.66000000    79.55000000    81.61000000
   H    113.21000000    80.04000000    82.34000000
   N    114.09000000    77.61000000    84.84000000
   C    114.55000000    78.30000000    86.03000000
   C    115.17000000    79.67000000    85.84000000
   O    115.60000000    80.05000000    84.75000000
   C    115.54000000    77.42000000    86.79000000
   C    114.97000000    76.19000000    87.50000000
   O    116.51000000    76.90000000    85.91000000
   H    114.64000000    76.88000000    84.41000000
   H    113.68000000    78.45000000    86.66000000
   H    116.04000000    77.92000000    87.62000000
   H    116.08000000    76.21000000    85.41000000
   H    114.34000000    75.63000000    86.81000000
   H    115.79000000    75.61000000    87.92000000
   H    114.21000000    76.43000000    88.25000000
   N    115.20000000    80.46000000    86.92000000
   C    115.47000000    81.88000000    87.02000000
   C    114.92000000    82.61000000    85.81000000
   O    115.74000000    83.13000000    85.07000000
   C    116.94000000    82.21000000    87.30000000
   C    117.41000000    81.45000000    88.53000000
   C    118.72000000    82.08000000    89.00000000
   C    119.89000000    81.87000000    88.04000000
   N    121.04000000    82.43000000    88.76000000
   H    114.89000000    79.97000000    87.74000000
   H    114.85000000    82.33000000    87.79000000
   H    116.96000000    83.28000000    87.47000000
   H    117.58000000    82.07000000    86.43000000
   H    117.56000000    80.46000000    88.10000000
   H    116.65000000    81.61000000    89.30000000
   H    118.96000000    81.67000000    89.98000000
   H    118.53000000    83.15000000    89.07000000
   H    119.70000000    82.37000000    87.09000000
   H    120.12000000    80.83000000    87.82000000
   H    121.17000000    82.03000000    89.68000000
   H    121.90000000    82.27000000    88.26000000
   H    120.95000000    83.44000000    88.80000000
   N    113.60000000    82.62000000    85.58000000
   C    112.87000000    83.26000000    84.51000000
   C    111.81000000    82.36000000    83.88000000
   O    111.51000000    82.50000000    82.69000000
   C    112.37000000    84.62000000    84.97000000
   C    113.21000000    85.80000000    84.48000000
   C    112.85000000    87.16000000    85.07000000
   O    111.62000000    87.30000000    85.26000000
   O    113.71000000    88.03000000    85.34000000
   H    113.05000000    82.28000000    86.36000000
   H    113.63000000    83.50000000    83.77000000
   H    112.38000000    84.56000000    86.06000000
   H    111.38000000    84.87000000    84.60000000
   H    113.09000000    85.84000000    83.40000000
   H    114.25000000    85.60000000    84.71000000
   N    111.00000000    81.59000000    84.62000000
   C    110.91000000    81.26000000    86.03000000
   H    109.87100000    81.33000000    86.35300000
   H    111.27200000    80.24500000    86.19000000
   H    111.51700000    81.95800000    86.60700000
   H    110.48000000    80.93000000    84.07000000
  Ca    104.08700000    88.04000000    79.84000000
   O    106.61700000    88.56000000    80.37000000
   H    107.47700000    88.35000000    80.01000000
   H    106.74700000    89.41000000    80.80000000
   O    104.73700000    88.16000000    82.68000000
   H    104.98700000    88.61000000    83.49000000
   H    104.53700000    87.27000000    82.95000000
   O    105.35700000    89.15000000    77.84000000
   H    106.06700000    89.79000000    77.75000000
   H    105.07700000    88.98000000    76.94000000
   O    104.44700000    90.64000000    80.31000000
   H    105.31700000    90.90000000    80.60000000
   H    103.99700000    91.46000000    80.13000000

Ca 1.00



