%chk=loop4.holoCaM-CaMKII.run41.water2.chk
%nprocshared=20
%mem=10GB
%nosave
#b3lyp/svp scf=(tight,noincore,xqc) Test 
#IOP(5/87=12) Density=Current Pop=(MK,readradii) iop(6/33=2) iop(6/42=6)

loop4.holoCaM-CaMKII.run41.water2 

   -3  1 
   C      9.62400000    51.01000000     1.99400000
   C     10.07400000    51.90000000     3.14400000
   O      9.45400000    52.93000000     3.38400000
   H      8.74000000    51.44200000     1.52600000
   H     10.42400000    50.93400000     1.25800000
   H      9.38400000    50.01700000     2.37400000
   N     11.13400000    51.52000000     3.86400000
   C     11.71400000    52.29000000     4.94400000
   C     12.27400000    53.62000000     4.47400000
   O     13.21400000    53.67000000     3.67400000
   C     12.82400000    51.51000000     5.65400000
   C     13.48400000    52.30000000     6.78400000
   O     12.84400000    53.03000000     7.57400000
   O     14.71400000    52.14000000     6.82400000
   H     11.48400000    50.59000000     3.67400000
   H     10.93400000    52.53000000     5.67400000
   H     13.58400000    51.22000000     4.94400000
   H     12.29400000    50.68000000     6.11400000
   N     11.75400000    54.78000000     4.88400000
   C     12.23400000    56.13000000     4.69400000
   C     13.35400000    56.51000000     5.65400000
   O     14.41400000    56.88000000     5.14400000
   C     11.10400000    57.17000000     4.62400000
   C     10.22400000    56.76000000     3.45400000
   C     11.62400000    58.60000000     4.52400000
   C      8.91400000    57.51000000     3.21400000
   H     11.05400000    54.65000000     5.60400000
   H     12.64400000    56.13000000     3.69400000
   H     10.49400000    57.21000000     5.53400000
   H      9.86400000    55.73000000     3.53400000
   H     10.70400000    56.73000000     2.47400000
   H     10.86400000    59.34000000     4.25400000
   H     12.09400000    59.01000000     5.41400000
   H     12.40400000    58.63000000     3.77400000
   H      8.29400000    57.07000000     2.42400000
   H      8.28400000    57.40000000     4.10400000
   H      9.04400000    58.56000000     2.99400000
   N     13.20400000    56.57000000     6.97400000
   C     14.16400000    57.23000000     7.84400000
   C     15.32400000    56.35000000     8.29400000
   O     16.19400000    56.80000000     9.04400000
   C     13.40400000    57.76000000     9.05400000
   C     12.69400000    56.69000000     9.87400000
   O     12.00400000    57.05000000    10.85400000
   O     12.75400000    55.50000000     9.50400000
   H     12.29400000    56.29000000     7.28400000
   H     14.55400000    58.11000000     7.32400000
   H     12.70400000    58.53000000     8.73400000
   H     14.09400000    58.25000000     9.74400000
   N     15.44400000    55.11000000     7.83400000
   C     16.60400000    54.26000000     7.99400000
   C     16.71400000    53.46000000     9.28400000
   O     17.82400000    53.03000000     9.57400000
   H     14.61400000    54.70000000     7.44400000
   H     17.47400000    54.91000000     7.90400000
   H     16.60400000    53.52000000     7.18400000
   N     15.62400000    53.31000000    10.04400000
   C     15.54400000    52.52000000    11.25400000
   C     15.22400000    51.06000000    10.98400000
   O     15.17400000    50.30000000    11.94400000
   C     14.51400000    53.10000000    12.21400000
   C     13.06400000    52.74000000    11.94400000
   O     12.28400000    52.84000000    12.91400000
   O     12.64400000    52.37000000    10.82400000
   H     14.82400000    53.85000000     9.73400000
   H     16.53400000    52.58000000    11.71400000
   H     14.56400000    54.19000000    12.28400000
   H     14.75400000    52.68000000    13.19400000
   N     15.07400000    50.60000000     9.73400000
   C     14.99400000    49.18000000     9.45400000
   C     13.67400000    48.52000000     9.83400000
   O     13.55400000    47.30000000     9.82400000
   H     15.21400000    51.28000000     9.00400000
   H     15.73400000    48.61000000    10.03400000
   H     15.03400000    49.03000000     8.38400000
   N     12.66400000    49.37000000     9.97400000
   C     11.27400000    48.99000000    10.12400000
   C     10.38400000    49.82000000     9.20400000
   O     10.75400000    50.91000000     8.77400000
   C     10.84400000    49.04000000    11.58400000
   C     11.10400000    47.78000000    12.41400000
   C     10.60400000    47.91000000    13.84400000
   N     10.66400000    46.85000000    14.66400000
   O     10.19400000    48.95000000    14.36400000
   H     12.85400000    50.36000000     9.88400000
   H     11.19400000    47.94000000     9.83400000
   H      9.80400000    49.34000000    11.66400000
   H     11.38400000    49.86000000    12.06400000
   H     12.11400000    47.40000000    12.49400000
   H     10.54400000    47.04000000    11.83400000
   H     11.33400000    46.19000000    14.28400000
   H     10.57400000    47.02000000    15.65400000
   N      9.21400000    49.29000000     8.84400000
   C      8.22400000    49.90000000     7.98400000
   C      6.95400000    50.16000000     8.79400000
   O      6.15400000    49.26000000     9.02400000
   C      8.02400000    49.06000000     6.72400000
   C      7.09400000    49.80000000     5.77400000
   C      9.38400000    49.00000000     6.04400000
   H      9.11400000    48.34000000     9.18400000
   H      8.64400000    50.86000000     7.67400000
   H      7.71400000    48.04000000     6.95400000
   H      6.06400000    49.64000000     6.08400000
   H      7.38400000    50.85000000     5.70400000
   H      7.11400000    49.52000000     4.71400000
   H      9.24400000    48.50000000     5.08400000
   H      9.85400000    49.96000000     5.80400000
   H     10.13400000    48.45000000     6.60400000
   N      6.75400000    51.45000000     9.06400000
   C      5.48400000    51.89000000     9.62400000
   C      4.33400000    51.81000000     8.62400000
   O      4.53400000    51.79000000     7.41400000
   C      5.61400000    53.34000000    10.05400000
   C      4.45400000    53.96000000    10.83400000
   N      4.53400000    53.95000000    12.16400000
   O      3.48400000    54.44000000    10.25400000
   H      7.41400000    52.10000000     8.66400000
   H      5.29400000    51.37000000    10.55400000
   H      5.65400000    54.05000000     9.22400000
   H      6.47400000    53.49000000    10.70400000
   H      5.37400000    53.57000000    12.58400000
   H      4.14400000    54.71000000    12.71400000
   N      3.09400000    51.90000000     9.09400000
   C      1.92400000    52.12000000     8.27400000
   C      2.07400000    53.20000000     7.21400000
   O      1.85400000    52.99000000     6.02400000
   C      0.67400000    52.23000000     9.14400000
   C     -0.57600000    52.63000000     8.39400000
   C     -1.11600000    51.64000000     7.56400000
   C     -1.22600000    53.87000000     8.47400000
   C     -2.24600000    51.88000000     6.76400000
   C     -2.43600000    54.09000000     7.80400000
   C     -2.93600000    53.10000000     6.93400000
   O     -4.09600000    53.37000000     6.27400000
   H      2.95400000    51.75000000    10.08400000
   H      1.69400000    51.20000000     7.74400000
   H      0.85400000    52.97000000     9.92400000
   H      0.51400000    51.29000000     9.65400000
   H     -0.66600000    50.66000000     7.50400000
   H     -0.85600000    54.61000000     9.16400000
   H     -2.59600000    51.08000000     6.13400000
   H     -3.00600000    55.00000000     7.97400000
   H     -4.37600000    54.29000000     6.35400000
   N      2.51400000    54.40000000     7.59400000
   C      2.58400000    55.58000000     6.76400000
   C      3.69400000    55.41000000     5.73400000
   O      3.70400000    56.08000000     4.70400000
   C      2.75400000    56.86000000     7.57400000
   C      1.39400000    57.24000000     8.15400000
   C      1.35400000    58.52000000     8.97400000
   O      1.90400000    59.54000000     8.51400000
   O      0.96400000    58.49000000    10.16400000
   H      2.58400000    54.50000000     8.60400000
   H      1.67400000    55.78000000     6.20400000
   H      3.15400000    57.59000000     6.87400000
   H      3.48400000    56.75000000     8.37400000
   H      1.03400000    56.44000000     8.79400000
   H      0.61400000    57.46000000     7.42400000
   N      4.66400000    54.51000000     5.93400000
   C      5.72400000    54.11000000     5.02400000
   C      5.23400000    53.13000000     3.97400000
   O      5.43400000    53.27000000     2.77400000
   C      6.93400000    53.67000000     5.85400000
   C      7.73400000    54.87000000     6.35400000
   C      8.95400000    54.40000000     7.12400000
   O     10.00400000    55.07000000     7.21400000
   O      8.93400000    53.29000000     7.70400000
   H      4.52400000    54.00000000     6.79400000
   H      6.07400000    54.99000000     4.49400000
   H      7.63400000    52.96000000     5.42400000
   H      6.53400000    53.08000000     6.68400000
   H      7.06400000    55.47000000     6.97400000
   H      8.03400000    55.35000000     5.42400000
   N      4.29400000    52.28000000     4.39400000
   C      3.60400000    51.28000000     3.61400000
   H      2.68200000    51.70300000     3.21600000
   H      4.24100000    50.95800000     2.79000000
   H      3.36700000    50.42500000     4.24700000
   H      4.17400000    52.30000000     5.40400000
  Ca     11.05000000    53.64000000     9.20000000
   O      9.98000000    52.62000000    11.46000000
   H      9.76000000    52.69000000    12.39000000
   H     10.82000000    52.18000000    11.45000000
   O      9.71000000    55.48000000    10.44000000
   H     10.30000000    56.23000000    10.41000000
   H      8.93000000    55.81000000    10.89000000

Ca 1.00



