%chk=loop1.holoCaM-CaMKII.run69.water2.chk
%nprocshared=20
%mem=10GB
%nosave
#b3lyp/svp scf=(tight,noincore,xqc) Test 
#IOP(5/87=12) Density=Current Pop=(MK,readradii) iop(6/33=2) iop(6/42=6)

loop1.holoCaM-CaMKII.run69.water2 

   0  1 
   C     12.49000000    47.34000000    -4.02000000
   C     11.90000000    47.40000000    -5.42000000
   O     10.73000000    47.08000000    -5.62000000
   H     13.37800000    47.97000000    -3.97300000
   H     11.75400000    47.69700000    -3.29900000
   H     12.76200000    46.31100000    -3.78300000
   N     12.64000000    47.84000000    -6.44000000
   C     12.30000000    47.96000000    -7.84000000
   C     12.21000000    46.52000000    -8.33000000
   O     13.20000000    45.80000000    -8.32000000
   C     13.29000000    48.80000000    -8.64000000
   C     12.97000000    49.03000000   -10.11000000
   O     13.92000000    49.09000000   -10.92000000
   O     11.79000000    48.94000000   -10.51000000
   H     13.63000000    47.92000000    -6.26000000
   H     11.31000000    48.44000000    -7.87000000
   H     14.24000000    48.26000000    -8.71000000
   H     13.58000000    49.67000000    -8.05000000
   N     11.09000000    46.13000000    -8.94000000
   C     10.85000000    44.78000000    -9.41000000
   C     10.87000000    44.75000000   -10.93000000
   O     11.32000000    43.71000000   -11.42000000
   C      9.49000000    44.24000000    -8.97000000
   C      9.66000000    43.94000000    -7.48000000
   C     10.08000000    42.47000000    -7.40000000
   C     10.17000000    42.02000000    -5.95000000
   N     11.26000000    42.77000000    -5.30000000
   H     10.33000000    46.79000000    -9.01000000
   H     11.56000000    44.00000000    -9.12000000
   H      9.21000000    43.35000000    -9.54000000
   H      8.63000000    44.90000000    -9.01000000
   H      8.70000000    44.08000000    -6.99000000
   H     10.28000000    44.55000000    -6.82000000
   H     11.04000000    42.33000000    -7.90000000
   H      9.33000000    41.91000000    -7.95000000
   H     10.25000000    40.94000000    -6.03000000
   H      9.34000000    42.38000000    -5.35000000
   H     12.10000000    42.70000000    -5.85000000
   H     11.10000000    43.76000000    -5.38000000
   H     11.30000000    42.61000000    -4.31000000
   N     10.59000000    45.79000000   -11.71000000
   C     10.51000000    45.70000000   -13.15000000
   C     11.64000000    46.41000000   -13.89000000
   O     11.76000000    46.30000000   -15.11000000
   C      9.11000000    46.07000000   -13.65000000
   C      8.57000000    47.44000000   -13.28000000
   O      9.30000000    48.30000000   -12.73000000
   O      7.35000000    47.63000000   -13.46000000
   H     10.19000000    46.66000000   -11.38000000
   H     10.53000000    44.66000000   -13.46000000
   H      8.45000000    45.22000000   -13.44000000
   H      9.08000000    45.96000000   -14.73000000
   N     12.45000000    47.22000000   -13.20000000
   C     13.79000000    47.54000000   -13.63000000
   C     13.82000000    48.89000000   -14.33000000
   O     14.80000000    49.28000000   -14.97000000
   H     12.31000000    47.24000000   -12.20000000
   H     14.13000000    46.76000000   -14.31000000
   H     14.45000000    47.54000000   -12.76000000
   N     12.82000000    49.73000000   -14.09000000
   C     12.71000000    51.11000000   -14.52000000
   C     13.42000000    52.09000000   -13.60000000
   O     13.56000000    53.27000000   -13.91000000
   C     11.23000000    51.47000000   -14.60000000
   C     10.32000000    51.26000000   -13.40000000
   O      9.07000000    51.27000000   -13.52000000
   O     10.79000000    51.47000000   -12.26000000
   H     12.05000000    49.36000000   -13.54000000
   H     13.16000000    51.08000000   -15.51000000
   H     10.78000000    50.97000000   -15.46000000
   H     11.19000000    52.54000000   -14.82000000
   N     13.99000000    51.61000000   -12.49000000
   C     14.77000000    52.35000000   -11.52000000
   C     13.91000000    53.27000000   -10.66000000
   O     14.44000000    54.08000000    -9.90000000
   H     13.94000000    50.63000000   -12.27000000
   H     15.54000000    52.92000000   -12.04000000
   H     15.29000000    51.66000000   -10.86000000
   N     12.58000000    53.22000000   -10.66000000
   C     11.65000000    53.83000000    -9.72000000
   C     10.82000000    52.90000000    -8.86000000
   O     10.71000000    51.77000000    -9.31000000
   C     10.81000000    54.79000000   -10.56000000
   C     11.63000000    55.94000000   -11.13000000
   O     10.17000000    54.09000000   -11.60000000
   H     12.20000000    52.62000000   -11.38000000
   H     12.28000000    54.39000000    -9.02000000
   H     10.01000000    55.13000000    -9.90000000
   H     10.84000000    53.76000000   -12.21000000
   H     12.35000000    56.29000000   -10.39000000
   H     12.32000000    55.68000000   -11.93000000
   H     11.05000000    56.83000000   -11.40000000
   N     10.33000000    53.28000000    -7.67000000
   C      9.56000000    52.51000000    -6.72000000
   C      8.14000000    53.06000000    -6.62000000
   O      7.95000000    54.26000000    -6.44000000
   C     10.24000000    52.36000000    -5.36000000
   C     11.75000000    52.14000000    -5.42000000
   C      9.66000000    51.26000000    -4.48000000
   C     12.48000000    52.47000000    -4.12000000
   H     10.65000000    54.17000000    -7.31000000
   H      9.44000000    51.49000000    -7.08000000
   H     10.13000000    53.32000000    -4.86000000
   H     12.22000000    52.90000000    -6.04000000
   H     11.98000000    51.16000000    -5.85000000
   H      8.59000000    51.29000000    -4.25000000
   H      9.79000000    50.31000000    -4.99000000
   H     10.19000000    51.09000000    -3.54000000
   H     12.09000000    51.85000000    -3.31000000
   H     13.57000000    52.43000000    -4.16000000
   H     12.25000000    53.47000000    -3.74000000
   N      7.12000000    52.19000000    -6.69000000
   C      5.72000000    52.50000000    -6.49000000
   C      5.27000000    51.96000000    -5.14000000
   O      5.80000000    51.04000000    -4.52000000
   C      4.86000000    51.82000000    -7.56000000
   C      5.07000000    52.29000000    -8.99000000
   O      4.88000000    50.42000000    -7.42000000
   H      7.32000000    51.25000000    -7.00000000
   H      5.63000000    53.58000000    -6.58000000
   H      3.81000000    52.01000000    -7.34000000
   H      4.53000000    50.12000000    -8.26000000
   H      4.42000000    51.74000000    -9.68000000
   H      4.73000000    53.31000000    -9.21000000
   H      6.13000000    52.17000000    -9.24000000
   N      4.13000000    52.48000000    -4.68000000
   C      3.28000000    51.92000000    -3.65000000
   C      3.15000000    50.41000000    -3.73000000
   O      3.20000000    49.68000000    -2.74000000
   C      1.94000000    52.64000000    -3.71000000
   C      1.92000000    54.15000000    -3.48000000
   O      1.28000000    52.41000000    -4.94000000
   H      3.84000000    53.36000000    -5.07000000
   H      3.77000000    52.18000000    -2.71000000
   H      1.30000000    52.22000000    -2.93000000
   H      0.48000000    52.94000000    -4.97000000
   H      0.94000000    54.58000000    -3.68000000
   H      2.14000000    54.36000000    -2.43000000
   H      2.58000000    54.59000000    -4.23000000
   N      2.97000000    49.83000000    -4.92000000
   C      2.88000000    48.40000000    -5.15000000
   C      4.16000000    47.63000000    -4.88000000
   O      4.12000000    46.62000000    -4.18000000
   C      2.30000000    48.23000000    -6.55000000
   C      2.41000000    46.90000000    -7.29000000
   C      1.41000000    46.68000000    -8.43000000
   C      1.29000000    45.23000000    -8.89000000
   N      2.53000000    44.67000000    -9.45000000
   H      2.87000000    50.38000000    -5.76000000
   H      2.09000000    48.02000000    -4.50000000
   H      2.60000000    49.07000000    -7.18000000
   H      1.25000000    48.45000000    -6.37000000
   H      2.28000000    46.08000000    -6.58000000
   H      3.42000000    46.77000000    -7.68000000
   H      1.77000000    47.30000000    -9.25000000
   H      0.41000000    47.00000000    -8.13000000
   H      0.63000000    45.23000000    -9.76000000
   H      0.92000000    44.57000000    -8.10000000
   H      2.38000000    43.69000000    -9.66000000
   H      2.78000000    45.11000000   -10.32000000
   H      3.27000000    44.69000000    -8.76000000
   N      5.27000000    48.21000000    -5.33000000
   C      6.56000000    47.57000000    -5.13000000
   C      6.92000000    47.63000000    -3.65000000
   O      7.38000000    46.66000000    -3.05000000
   C      7.56000000    48.27000000    -6.03000000
   C      7.42000000    47.73000000    -7.45000000
   C      8.34000000    48.40000000    -8.46000000
   O      8.79000000    47.70000000    -9.39000000
   O      8.58000000    49.62000000    -8.38000000
   H      5.17000000    49.14000000    -5.71000000
   H      6.41000000    46.52000000    -5.41000000
   H      8.58000000    48.05000000    -5.71000000
   H      7.47000000    49.36000000    -6.05000000
   H      6.40000000    47.82000000    -7.84000000
   H      7.57000000    46.65000000    -7.43000000
   N      6.81000000    48.84000000    -3.08000000
   C      7.13000000    49.17000000    -1.71000000
   H      7.94600000    49.89300000    -1.69200000
   H      6.25400000    49.60000000    -1.22500000
   H      7.43300000    48.26700000    -1.18000000
   H      6.41000000    49.60000000    -3.60000000
  Ca      9.43000000    49.97000000   -10.71400000
   O      7.75000000    52.06000000   -11.23400000
   H      6.86000000    52.12000000   -11.57400000
   H      8.31000000    52.38000000   -11.94400000
   O      6.84000000    49.21000000   -11.29400000
   H      5.96000000    49.52000000   -11.11400000
   H      6.81000000    48.88000000   -12.18400000

Ca 1.00



