%chk=loop1.holoCaM-CaMKII.run55.water2.chk
%nprocshared=20
%mem=10GB
%nosave
#b3lyp/svp scf=(tight,noincore,xqc) Test 
#IOP(5/87=12) Density=Current Pop=(MK,readradii) iop(6/33=2) iop(6/42=6)

loop1.holoCaM-CaMKII.run55.water2 

   0  1 
   C     17.10000000    51.97000000    12.50000000
   C     16.12000000    51.86000000    11.34000000
   O     15.65000000    50.82000000    10.90000000
   H     17.97200000    52.54400000    12.18500000
   H     16.61700000    52.47400000    13.33800000
   H     17.41400000    50.97200000    12.80700000
   N     15.67000000    53.02000000    10.84000000
   C     14.73000000    53.03000000     9.75000000
   C     15.28000000    52.37000000     8.49000000
   O     16.21000000    52.92000000     7.90000000
   C     14.30000000    54.48000000     9.57000000
   C     13.30000000    54.64000000     8.43000000
   O     13.20000000    55.74000000     7.85000000
   O     12.63000000    53.62000000     8.16000000
   H     16.13000000    53.86000000    11.17000000
   H     13.94000000    52.40000000    10.17000000
   H     15.16000000    55.12000000     9.37000000
   H     13.88000000    54.91000000    10.48000000
   N     14.67000000    51.28000000     8.01000000
   C     15.17000000    50.35000000     7.02000000
   C     14.55000000    50.61000000     5.66000000
   O     15.12000000    50.10000000     4.70000000
   C     14.98000000    48.93000000     7.53000000
   C     15.48000000    47.94000000     6.49000000
   C     15.98000000    46.64000000     7.12000000
   C     17.23000000    46.80000000     7.97000000
   N     17.19000000    45.73000000     8.98000000
   H     13.90000000    51.03000000     8.62000000
   H     16.20000000    50.45000000     6.67000000
   H     13.92000000    48.71000000     7.63000000
   H     15.52000000    48.79000000     8.47000000
   H     16.32000000    48.39000000     5.96000000
   H     14.69000000    47.76000000     5.76000000
   H     16.12000000    45.91000000     6.32000000
   H     15.14000000    46.27000000     7.71000000
   H     17.28000000    47.75000000     8.50000000
   H     18.18000000    46.76000000     7.44000000
   H     17.92000000    45.63000000     9.68000000
   H     16.33000000    45.86000000     9.49000000
   H     17.12000000    44.83000000     8.53000000
   N     13.51000000    51.45000000     5.57000000
   C     12.98000000    51.91000000     4.31000000
   C     12.85000000    53.41000000     4.13000000
   O     12.33000000    53.82000000     3.09000000
   C     11.63000000    51.24000000     4.09000000
   C     10.71000000    51.40000000     5.29000000
   O      9.91000000    50.45000000     5.50000000
   O     10.77000000    52.35000000     6.10000000
   H     13.18000000    51.75000000     6.48000000
   H     13.71000000    51.55000000     3.58000000
   H     11.69000000    50.16000000     3.94000000
   H     11.10000000    51.61000000     3.22000000
   N     13.35000000    54.16000000     5.12000000
   C     13.46000000    55.59000000     4.93000000
   C     12.21000000    56.46000000     5.02000000
   O     12.27000000    57.63000000     4.64000000
   H     13.55000000    53.78000000     6.03000000
   H     13.85000000    55.73000000     3.92000000
   H     14.22000000    56.04000000     5.55000000
   N     11.08000000    55.92000000     5.47000000
   C      9.94000000    56.78000000     5.68000000
   C     10.04000000    57.80000000     6.80000000
   O      9.13000000    58.61000000     6.98000000
   C      8.73000000    55.91000000     6.03000000
   C      9.08000000    54.83000000     7.05000000
   O     10.03000000    55.03000000     7.84000000
   O      8.30000000    53.88000000     7.24000000
   H     11.08000000    55.09000000     6.05000000
   H      9.66000000    57.31000000     4.77000000
   H      8.29000000    55.38000000     5.18000000
   H      7.85000000    56.45000000     6.36000000
   N     11.14000000    57.82000000     7.55000000
   C     11.39000000    58.72000000     8.66000000
   C     10.83000000    58.22000000     9.98000000
   O     10.53000000    59.04000000    10.85000000
   H     11.89000000    57.18000000     7.34000000
   H     10.96000000    59.68000000     8.40000000
   H     12.45000000    58.92000000     8.81000000
   N     10.55000000    56.92000000    10.09000000
   C      9.83000000    56.35000000    11.21000000
   C     10.32000000    54.95000000    11.52000000
   O     10.72000000    54.24000000    10.60000000
   C      8.32000000    56.22000000    11.02000000
   C      7.49000000    57.39000000    11.55000000
   O      7.96000000    56.09000000     9.67000000
   H     10.74000000    56.28000000     9.33000000
   H      9.86000000    57.00000000    12.09000000
   H      7.94000000    55.37000000    11.59000000
   H      8.71000000    55.71000000     9.20000000
   H      7.75000000    57.51000000    12.60000000
   H      7.63000000    58.32000000    10.99000000
   H      6.42000000    57.19000000    11.61000000
   N     10.25000000    54.48000000    12.77000000
   C     10.66000000    53.15000000    13.18000000
   C      9.37000000    52.44000000    13.58000000
   O      8.56000000    53.00000000    14.32000000
   C     11.63000000    53.22000000    14.35000000
   C     12.73000000    54.27000000    14.16000000
   C     12.19000000    51.81000000    14.51000000
   C     13.71000000    54.48000000    15.30000000
   H      9.75000000    55.08000000    13.41000000
   H     11.00000000    52.62000000    12.29000000
   H     11.08000000    53.54000000    15.23000000
   H     12.28000000    55.26000000    14.17000000
   H     13.31000000    54.15000000    13.25000000
   H     11.37000000    51.21000000    14.89000000
   H     12.56000000    51.45000000    13.55000000
   H     13.05000000    51.73000000    15.19000000
   H     13.17000000    54.38000000    16.24000000
   H     14.49000000    53.72000000    15.22000000
   H     14.17000000    55.46000000    15.15000000
   N      9.24000000    51.15000000    13.26000000
   C      8.28000000    50.14000000    13.65000000
   C      8.87000000    49.12000000    14.61000000
   O     10.09000000    49.01000000    14.77000000
   C      7.82000000    49.32000000    12.44000000
   C      6.93000000    50.03000000    11.43000000
   O      8.93000000    48.83000000    11.71000000
   H      9.97000000    50.79000000    12.67000000
   H      7.37000000    50.60000000    14.04000000
   H      7.28000000    48.41000000    12.71000000
   H      9.09000000    49.50000000    11.04000000
   H      7.48000000    50.88000000    11.03000000
   H      6.66000000    49.35000000    10.62000000
   H      6.10000000    50.46000000    11.98000000
   N      7.97000000    48.42000000    15.30000000
   C      8.33000000    47.31000000    16.16000000
   C      9.35000000    46.39000000    15.51000000
   O     10.34000000    46.07000000    16.16000000
   C      7.14000000    46.45000000    16.57000000
   C      7.35000000    45.78000000    17.92000000
   O      5.90000000    47.13000000    16.55000000
   H      6.96000000    48.51000000    15.24000000
   H      8.70000000    47.73000000    17.09000000
   H      7.00000000    45.65000000    15.85000000
   H      5.10000000    46.70000000    16.87000000
   H      7.61000000    46.51000000    18.69000000
   H      6.42000000    45.27000000    18.18000000
   H      8.17000000    45.07000000    17.89000000
   N      9.14000000    46.02000000    14.24000000
   C     10.02000000    45.21000000    13.42000000
   C     11.40000000    45.86000000    13.34000000
   O     12.41000000    45.26000000    13.67000000
   C      9.30000000    45.06000000    12.09000000
   C     10.12000000    44.49000000    10.93000000
   C      9.40000000    44.67000000     9.60000000
   C      9.30000000    46.15000000     9.26000000
   N      8.86000000    46.32000000     7.86000000
   H      8.33000000    46.35000000    13.74000000
   H     10.24000000    44.23000000    13.85000000
   H      8.90000000    46.03000000    11.79000000
   H      8.42000000    44.42000000    12.22000000
   H     10.29000000    43.44000000    11.18000000
   H     11.08000000    45.00000000    10.87000000
   H      8.43000000    44.18000000     9.53000000
   H     10.08000000    44.23000000     8.88000000
   H     10.28000000    46.60000000     9.40000000
   H      8.56000000    46.59000000     9.93000000
   H      8.72000000    47.31000000     7.72000000
   H      9.44000000    45.84000000     7.19000000
   H      7.97000000    45.92000000     7.62000000
   N     11.49000000    47.10000000    12.84000000
   C     12.73000000    47.84000000    12.80000000
   C     13.43000000    48.12000000    14.12000000
   O     14.66000000    48.19000000    14.15000000
   C     12.56000000    49.19000000    12.09000000
   C     12.38000000    48.96000000    10.59000000
   C     11.67000000    50.15000000     9.94000000
   O     12.11000000    50.57000000     8.85000000
   O     10.70000000    50.72000000    10.48000000
   H     10.68000000    47.55000000    12.44000000
   H     13.40000000    47.31000000    12.12000000
   H     13.45000000    49.80000000    12.19000000
   H     11.70000000    49.73000000    12.47000000
   H     11.97000000    47.98000000    10.37000000
   H     13.38000000    48.93000000    10.16000000
   N     12.75000000    48.28000000    15.26000000
   C     13.34000000    48.34000000    16.58000000
   H     14.23100000    48.96700000    16.55100000
   H     12.62100000    48.76400000    17.28100000
   H     13.61300000    47.33500000    16.90200000
   H     11.75000000    48.30000000    15.16000000
  Ca     10.42000000    52.60000000     8.54000000
   O      8.80000000    50.72000000     7.95000000
   H      8.22000000    50.00000000     8.20000000
   H      8.86000000    50.66000000     7.00000000
   O      8.23000000    53.06000000    10.17000000
   H      7.71000000    52.32000000     9.85000000
   H      7.63000000    53.81000000    10.13000000

Ca 1.00



