%chk=loop3.apoCaM-CA-Ng.Init295.run20.water3.chk
%nprocshared=20
%mem=10GB
%nosave
#b3lyp/svp scf=(tight,noincore,xqc) Test 
#IOP(5/87=12) Density=Current Pop=(MK,readradii) iop(6/33=2) iop(6/42=6)

loop3.apoCaM-CA-Ng.Init295.run20.water3 

   0  1 
   C    100.76000000    38.70000000    50.43000000
   C    101.31000000    39.18000000    51.77000000
   O    100.50000000    39.75000000    52.50000000
   H     99.87200000    39.27800000    50.17500000
   H    101.51600000    38.83600000    49.65700000
   H    100.49800000    37.64400000    50.50100000
   N    102.57000000    38.94000000    52.15000000
   C    103.20000000    39.58000000    53.28000000
   C    104.14000000    40.71000000    52.86000000
   O    104.83000000    40.62000000    51.85000000
   C    103.89000000    38.48000000    54.08000000
   C    104.66000000    39.04000000    55.27000000
   O    104.18000000    39.07000000    56.42000000
   O    105.80000000    39.51000000    55.08000000
   H    103.15000000    38.43000000    51.50000000
   H    102.43000000    40.02000000    53.92000000
   H    104.54000000    37.99000000    53.36000000
   H    103.20000000    37.66000000    54.30000000
   N    104.28000000    41.72000000    53.72000000
   C    105.27000000    42.77000000    53.56000000
   C    106.73000000    42.48000000    53.24000000
   O    107.28000000    43.25000000    52.46000000
   C    105.10000000    43.75000000    54.73000000
   C    105.76000000    45.10000000    54.50000000
   C    105.59000000    45.97000000    55.74000000
   C    106.44000000    47.23000000    55.59000000
   N    106.32000000    48.14000000    56.74000000
   H    103.64000000    41.79000000    54.50000000
   H    104.92000000    43.27000000    52.66000000
   H    105.62000000    43.30000000    55.57000000
   H    104.04000000    43.90000000    54.92000000
   H    105.23000000    45.59000000    53.68000000
   H    106.83000000    45.02000000    54.30000000
   H    106.04000000    45.35000000    56.52000000
   H    104.54000000    46.19000000    55.95000000
   H    106.37000000    47.78000000    54.65000000
   H    107.46000000    46.86000000    55.57000000
   H    106.95000000    48.92000000    56.63000000
   H    105.36000000    48.43000000    56.82000000
   H    106.64000000    47.68000000    57.58000000
   N    107.31000000    41.36000000    53.66000000
   C    108.54000000    40.77000000    53.16000000
   C    108.30000000    39.51000000    52.34000000
   O    109.11000000    39.12000000    51.51000000
   C    109.57000000    40.56000000    54.27000000
   C    109.00000000    39.87000000    55.50000000
   O    108.70000000    38.66000000    55.56000000
   O    108.52000000    40.59000000    56.40000000
   H    106.85000000    40.81000000    54.38000000
   H    109.05000000    41.38000000    52.42000000
   H    109.97000000    41.52000000    54.57000000
   H    110.42000000    39.96000000    53.93000000
   N    107.16000000    38.83000000    52.55000000
   C    106.67000000    37.74000000    51.74000000
   C    106.77000000    36.41000000    52.46000000
   O    106.58000000    35.37000000    51.84000000
   H    106.55000000    39.13000000    53.30000000
   H    107.22000000    37.71000000    50.80000000
   H    105.61000000    37.97000000    51.60000000
   N    107.08000000    36.42000000    53.76000000
   C    107.04000000    35.28000000    54.66000000
   C    106.05000000    35.70000000    55.73000000
   O    106.28000000    36.62000000    56.52000000
   C    108.42000000    34.93000000    55.20000000
   C    108.48000000    33.52000000    55.78000000
   N    109.59000000    32.88000000    55.38000000
   O    107.63000000    33.10000000    56.56000000
   H    107.27000000    37.28000000    54.26000000
   H    106.52000000    34.45000000    54.18000000
   H    108.91000000    35.56000000    55.93000000
   H    109.08000000    34.99000000    54.33000000
   H    110.22000000    33.26000000    54.69000000
   H    109.81000000    32.00000000    55.82000000
   N    104.96000000    34.93000000    55.79000000
   C    103.80000000    35.03000000    56.64000000
   C    103.98000000    35.08000000    58.15000000
   O    102.96000000    35.07000000    58.85000000
   H    104.96000000    34.18000000    55.11000000
   H    103.14000000    34.18000000    56.48000000
   H    103.28000000    35.92000000    56.28000000
   N    105.19000000    35.13000000    58.71000000
   C    105.46000000    35.32000000    60.12000000
   C    105.26000000    36.79000000    60.45000000
   O    105.62000000    37.59000000    59.59000000
   C    106.88000000    34.93000000    60.52000000
   C    107.16000000    33.44000000    60.62000000
   C    108.16000000    32.84000000    59.84000000
   C    106.42000000    32.60000000    61.46000000
   C    108.48000000    31.49000000    59.97000000
   C    106.63000000    31.22000000    61.46000000
   C    107.70000000    30.62000000    60.76000000
   O    107.82000000    29.26000000    60.69000000
   H    105.89000000    34.83000000    58.05000000
   H    104.78000000    34.59000000    60.57000000
   H    107.08000000    35.42000000    61.47000000
   H    107.47000000    35.36000000    59.71000000
   H    108.72000000    33.41000000    59.12000000
   H    105.60000000    33.00000000    62.04000000
   H    109.18000000    31.13000000    59.23000000
   H    105.90000000    30.67000000    62.03000000
   H    107.18000000    28.86000000    61.27000000
   N    104.68000000    37.08000000    61.61000000
   C    104.33000000    38.34000000    62.23000000
   C    105.52000000    39.17000000    62.69000000
   O    106.61000000    39.27000000    62.13000000
   C    103.15000000    39.14000000    61.68000000
   C    101.85000000    38.38000000    61.46000000
   C    103.57000000    39.85000000    60.39000000
   C    101.25000000    37.89000000    62.78000000
   H    104.33000000    36.27000000    62.11000000
   H    103.93000000    38.00000000    63.19000000
   H    102.95000000    39.93000000    62.40000000
   H    101.92000000    37.47000000    60.86000000
   H    101.14000000    39.12000000    61.10000000
   H    104.54000000    40.34000000    60.46000000
   H    103.51000000    38.96000000    59.77000000
   H    102.86000000    40.56000000    59.95000000
   H    100.85000000    38.70000000    63.38000000
   H    100.32000000    37.35000000    62.59000000
   H    101.94000000    37.21000000    63.28000000
   N    105.27000000    39.85000000    63.81000000
   C    106.18000000    40.76000000    64.47000000
   C    106.36000000    40.68000000    65.98000000
   O    107.43000000    40.91000000    66.55000000
   C    105.78000000    42.20000000    64.17000000
   O    104.43000000    42.53000000    64.40000000
   H    104.35000000    39.75000000    64.23000000
   H    107.18000000    40.57000000    64.09000000
   H    105.93000000    42.45000000    63.11000000
   H    106.43000000    42.93000000    64.65000000
   H    104.32000000    43.28000000    63.81000000
   N    105.28000000    40.21000000    66.61000000
   C    105.15000000    40.05000000    68.04000000
   C    105.78000000    41.17000000    68.86000000
   O    106.62000000    41.01000000    69.74000000
   C    105.53000000    38.60000000    68.33000000
   H    104.51000000    39.93000000    66.02000000
   H    104.11000000    39.99000000    68.34000000
   H    106.58000000    38.32000000    68.18000000
   H    105.21000000    38.37000000    69.34000000
   H    104.85000000    37.93000000    67.81000000
   N    105.29000000    42.39000000    68.67000000
   C    104.09000000    42.83000000    67.98000000
   C    102.81000000    42.67000000    68.79000000
   O    102.81000000    42.81000000    70.01000000
   C    104.20000000    44.34000000    67.78000000
   H    105.77000000    43.08000000    69.23000000
   H    104.05000000    42.31000000    67.02000000
   H    104.62000000    44.43000000    66.78000000
   H    103.24000000    44.87000000    67.80000000
   H    104.85000000    44.77000000    68.53000000
   N    101.64000000    42.40000000    68.21000000
   C    101.33000000    42.11000000    66.82000000
   C    100.22000000    41.08000000    66.80000000
   O    100.35000000    40.04000000    66.16000000
   C    100.95000000    43.43000000    66.15000000
   C    100.45000000    43.32000000    64.72000000
   C    100.66000000    44.64000000    64.00000000
   O     99.65000000    45.15000000    63.48000000
   O    101.81000000    45.13000000    63.92000000
   H    100.87000000    42.33000000    68.85000000
   H    102.16000000    41.67000000    66.27000000
   H    101.86000000    44.03000000    66.19000000
   H    100.29000000    44.07000000    66.74000000
   H     99.40000000    43.02000000    64.66000000
   H    101.08000000    42.57000000    64.24000000
   N     99.07000000    41.40000000    67.40000000
   C     97.84000000    40.63000000    67.32000000
   H     97.06200000    41.23700000    66.85800000
   H     98.00800000    39.73700000    66.71900000
   H     97.52600000    40.34000000    68.32300000
   H     98.97000000    42.30000000    67.84000000
  Ca    106.69700000    39.07000000    57.46000000
   O    107.54700000    40.35000000    59.81000000
   H    106.95700000    39.94000000    60.45000000
   H    107.77700000    41.19000000    60.20000000
   O    105.62700000    41.53000000    57.95000000
   H    104.67700000    41.59000000    57.83000000
   H    105.87700000    42.37000000    58.32000000
   O    108.51700000    37.45000000    58.66000000
   H    108.50700000    37.39000000    59.62000000
   H    109.25700000    36.91000000    58.39000000

Ca 1.00



