%chk=loop2.holoCaM-CaMKII.run42.water1.chk
%nprocshared=20
%mem=10GB
%nosave
#b3lyp/svp scf=(tight,noincore,xqc) Test 
#IOP(5/87=12) Density=Current Pop=(MK,readradii) iop(6/33=2) iop(6/42=6)

loop2.holoCaM-CaMKII.run42.water1 

   -2  1 
   C    -12.02000000    22.07000000     2.16000000
   C    -11.48000000    21.52000000     0.84000000
   O    -11.15000000    22.25000000    -0.10000000
   H    -13.04100000    21.71800000     2.30900000
   H    -11.39300000    21.72400000     2.98200000
   H    -12.01300000    23.16000000     2.13000000
   N    -11.25000000    20.21000000     0.88000000
   C    -10.53000000    19.39000000    -0.08000000
   C    -11.33000000    19.09000000    -1.34000000
   O    -12.49000000    18.68000000    -1.27000000
   C    -10.13000000    18.07000000     0.56000000
   C     -9.03000000    17.34000000    -0.19000000
   O     -8.79000000    16.14000000     0.08000000
   O     -8.33000000    17.90000000    -1.06000000
   H    -11.44000000    19.74000000     1.75000000
   H     -9.64000000    19.90000000    -0.44000000
   H    -10.95000000    17.36000000     0.63000000
   H     -9.77000000    18.24000000     1.58000000
   N    -10.73000000    19.20000000    -2.52000000
   C    -11.22000000    18.63000000    -3.77000000
   C    -10.52000000    17.44000000    -4.39000000
   O    -11.05000000    16.81000000    -5.31000000
   C    -11.57000000    19.76000000    -4.73000000
   H     -9.81000000    19.61000000    -2.53000000
   H    -12.25000000    18.30000000    -3.63000000
   H    -10.84000000    19.78000000    -5.54000000
   H    -12.53000000    19.60000000    -5.22000000
   H    -11.55000000    20.73000000    -4.23000000
   N     -9.38000000    17.02000000    -3.83000000
   C     -8.57000000    16.05000000    -4.54000000
   C     -8.03000000    14.89000000    -3.72000000
   O     -7.71000000    13.85000000    -4.29000000
   C     -7.42000000    16.79000000    -5.21000000
   C     -6.71000000    17.70000000    -4.21000000
   O     -6.23000000    17.05000000    -3.25000000
   O     -6.71000000    18.95000000    -4.29000000
   H     -9.08000000    17.51000000    -3.00000000
   H     -9.07000000    15.57000000    -5.39000000
   H     -7.86000000    17.35000000    -6.02000000
   H     -6.72000000    16.02000000    -5.54000000
   N     -7.99000000    15.01000000    -2.39000000
   C     -7.51000000    13.96000000    -1.52000000
   C     -6.01000000    13.72000000    -1.41000000
   O     -5.63000000    12.60000000    -1.05000000
   H     -8.28000000    15.89000000    -2.00000000
   H     -8.02000000    13.04000000    -1.80000000
   H     -7.84000000    14.16000000    -0.50000000
   N     -5.22000000    14.71000000    -1.81000000
   C     -3.77000000    14.74000000    -1.68000000
   C     -3.26000000    14.93000000    -0.25000000
   O     -2.05000000    14.99000000    -0.06000000
   C     -3.30000000    15.75000000    -2.72000000
   C     -3.29000000    17.22000000    -2.31000000
   N     -2.42000000    18.03000000    -2.91000000
   O     -3.85000000    17.61000000    -1.29000000
   H     -5.79000000    15.46000000    -2.17000000
   H     -3.41000000    13.77000000    -2.02000000
   H     -3.90000000    15.71000000    -3.63000000
   H     -2.24000000    15.60000000    -2.93000000
   H     -2.02000000    17.87000000    -3.82000000
   H     -2.49000000    18.99000000    -2.61000000
   N     -4.12000000    15.07000000     0.76000000
   C     -3.70000000    15.26000000     2.14000000
   C     -3.24000000    16.66000000     2.52000000
   O     -2.55000000    16.78000000     3.53000000
   H     -5.10000000    15.16000000     0.53000000
   H     -2.92000000    14.59000000     2.49000000
   H     -4.53000000    15.12000000     2.83000000
   N     -3.50000000    17.67000000     1.68000000
   C     -2.89000000    18.97000000     1.82000000
   C     -3.66000000    20.13000000     1.20000000
   O     -4.51000000    19.92000000     0.34000000
   C     -1.48000000    18.99000000     1.23000000
   C     -0.37000000    18.19000000     1.91000000
   O     -1.53000000    18.68000000    -0.15000000
   H     -4.06000000    17.50000000     0.85000000
   H     -2.79000000    19.22000000     2.87000000
   H     -1.12000000    20.02000000     1.28000000
   H     -2.43000000    18.86000000    -0.43000000
   H     -0.52000000    18.25000000     2.99000000
   H     -0.42000000    17.16000000     1.55000000
   H      0.50000000    18.82000000     1.70000000
   N     -3.44000000    21.38000000     1.62000000
   C     -4.18000000    22.53000000     1.15000000
   C     -3.55000000    23.15000000    -0.09000000
   O     -2.46000000    23.68000000     0.07000000
   C     -4.30000000    23.52000000     2.31000000
   C     -5.10000000    22.89000000     3.45000000
   C     -5.05000000    24.81000000     1.99000000
   C     -6.54000000    22.47000000     3.20000000
   H     -2.71000000    21.55000000     2.30000000
   H     -5.21000000    22.27000000     0.91000000
   H     -3.33000000    23.80000000     2.72000000
   H     -5.09000000    23.62000000     4.26000000
   H     -4.50000000    22.04000000     3.79000000
   H     -5.06000000    25.38000000     2.91000000
   H     -4.68000000    25.39000000     1.14000000
   H     -6.06000000    24.60000000     1.63000000
   H     -6.70000000    21.81000000     2.34000000
   H     -6.97000000    21.88000000     4.01000000
   H     -7.14000000    23.38000000     3.10000000
   N     -4.19000000    23.03000000    -1.25000000
   C     -3.90000000    23.71000000    -2.49000000
   C     -4.53000000    25.10000000    -2.47000000
   O     -5.35000000    25.44000000    -1.63000000
   C     -4.43000000    22.94000000    -3.70000000
   C     -3.99000000    21.49000000    -3.64000000
   O     -4.64000000    20.70000000    -2.92000000
   O     -3.04000000    21.06000000    -4.33000000
   H     -5.08000000    22.54000000    -1.20000000
   H     -2.84000000    23.90000000    -2.62000000
   H     -4.13000000    23.45000000    -4.62000000
   H     -5.51000000    23.06000000    -3.73000000
   N     -4.03000000    25.97000000    -3.36000000
   C     -4.36000000    27.37000000    -3.21000000
   C     -5.82000000    27.77000000    -3.39000000
   O     -6.35000000    28.51000000    -2.56000000
   C     -3.38000000    28.15000000    -4.08000000
   C     -3.41000000    29.64000000    -3.83000000
   C     -3.70000000    30.50000000    -4.89000000
   C     -2.86000000    30.16000000    -2.65000000
   C     -3.60000000    31.89000000    -4.73000000
   C     -2.83000000    31.55000000    -2.47000000
   C     -3.30000000    32.41000000    -3.47000000
   H     -3.43000000    25.69000000    -4.12000000
   H     -4.15000000    27.62000000    -2.17000000
   H     -3.72000000    27.99000000    -5.11000000
   H     -2.34000000    27.82000000    -4.00000000
   H     -4.11000000    30.14000000    -5.83000000
   H     -2.49000000    29.51000000    -1.87000000
   H     -4.01000000    32.57000000    -5.46000000
   H     -2.46000000    31.95000000    -1.54000000
   H     -3.26000000    33.47000000    -3.28000000
   N     -6.56000000    27.15000000    -4.32000000
   C     -8.00000000    27.27000000    -4.37000000
   C     -8.76000000    26.91000000    -3.10000000
   O     -9.81000000    27.45000000    -2.76000000
   C     -8.43000000    26.38000000    -5.54000000
   C     -7.21000000    26.06000000    -6.38000000
   C     -6.04000000    26.46000000    -5.48000000
   H     -8.12000000    28.33000000    -4.59000000
   H     -8.80000000    25.45000000    -5.11000000
   H     -9.18000000    26.92000000    -6.11000000
   H     -7.19000000    24.98000000    -6.53000000
   H     -7.24000000    26.64000000    -7.31000000
   H     -5.59000000    25.51000000    -5.19000000
   H     -5.37000000    27.08000000    -6.07000000
   N     -8.16000000    26.04000000    -2.29000000
   C     -8.68000000    25.53000000    -1.04000000
   C     -8.20000000    26.38000000     0.13000000
   O     -8.99000000    26.68000000     1.02000000
   C     -8.23000000    24.10000000    -0.75000000
   C     -8.38000000    23.11000000    -1.89000000
   C     -7.96000000    21.72000000    -1.44000000
   O     -8.23000000    20.80000000    -2.24000000
   O     -7.15000000    21.61000000    -0.49000000
   H     -7.36000000    25.55000000    -2.66000000
   H     -9.77000000    25.50000000    -1.06000000
   H     -8.84000000    23.76000000     0.09000000
   H     -7.18000000    24.07000000    -0.45000000
   H     -7.76000000    23.42000000    -2.73000000
   H     -9.44000000    22.98000000    -2.11000000
   N     -7.02000000    26.99000000     0.05000000
   C     -6.70000000    28.07000000     0.96000000
   H     -5.83900000    28.62000000     0.58100000
   H     -7.55400000    28.74300000     1.04000000
   H     -6.46600000    27.66100000     1.94300000
   H     -6.29000000    26.65000000    -0.56000000
  Ca     -6.19000000    19.19000000    -1.63000000
   O     -6.13000000    17.55000000     0.64000000
   H     -6.62000000    16.73000000     0.62000000
   H     -6.67000000    18.14000000     1.16000000

Ca 1.00



