%chk=loop3.apoCaM-CA-Ng.Init31.run83.water6.chk
%nprocshared=20
%mem=10GB
%nosave
#b3lyp/svp scf=(tight,noincore,xqc) Test 
#IOP(5/87=12) Density=Current Pop=(MK,readradii) iop(6/33=2) iop(6/42=6)

loop3.apoCaM-CA-Ng.Init31.run83.water6 

   0  1 
   C     74.82000000    68.88000000    25.27000000
   C     75.49000000    67.91000000    24.32000000
   O     75.11000000    66.75000000    24.17000000
   H     73.82200000    68.51700000    25.51600000
   H     75.41100000    68.96200000    26.18200000
   H     74.74300000    69.85900000    24.79600000
   N     76.52000000    68.38000000    23.61000000
   C     77.40000000    67.60000000    22.76000000
   C     78.30000000    66.64000000    23.53000000
   O     78.64000000    66.88000000    24.69000000
   C     78.10000000    68.54000000    21.79000000
   C     79.02000000    69.53000000    22.47000000
   O     78.63000000    70.66000000    22.84000000
   O     80.23000000    69.22000000    22.47000000
   H     76.70000000    69.36000000    23.73000000
   H     76.73000000    66.97000000    22.17000000
   H     77.30000000    69.07000000    21.26000000
   H     78.68000000    67.92000000    21.11000000
   N     78.91000000    65.69000000    22.81000000
   C     80.08000000    65.01000000    23.32000000
   C     79.74000000    64.11000000    24.50000000
   O     80.50000000    63.93000000    25.44000000
   C     80.79000000    64.33000000    22.15000000
   C     82.14000000    63.82000000    22.64000000
   C     82.77000000    62.93000000    21.57000000
   C     84.15000000    62.35000000    21.84000000
   N     84.72000000    61.74000000    20.62000000
   H     78.65000000    65.58000000    21.84000000
   H     80.79000000    65.75000000    23.70000000
   H     80.93000000    65.07000000    21.36000000
   H     80.22000000    63.42000000    21.94000000
   H     81.96000000    63.19000000    23.50000000
   H     82.78000000    64.66000000    22.91000000
   H     82.85000000    63.47000000    20.63000000
   H     82.14000000    62.06000000    21.38000000
   H     84.09000000    61.55000000    22.57000000
   H     84.82000000    63.11000000    22.23000000
   H     84.37000000    62.30000000    19.85000000
   H     85.72000000    61.64000000    20.72000000
   H     84.35000000    60.82000000    20.45000000
   N     78.53000000    63.55000000    24.48000000
   C     77.88000000    62.72000000    25.48000000
   C     78.37000000    61.29000000    25.31000000
   O     77.67000000    60.41000000    24.80000000
   C     76.38000000    62.93000000    25.35000000
   C     75.82000000    62.67000000    23.96000000
   O     74.63000000    62.30000000    23.90000000
   O     76.51000000    62.80000000    22.93000000
   H     77.95000000    63.77000000    23.69000000
   H     78.20000000    63.20000000    26.41000000
   H     76.03000000    63.91000000    25.68000000
   H     75.93000000    62.15000000    25.96000000
   N     79.66000000    61.00000000    25.47000000
   C     80.43000000    59.85000000    25.01000000
   C     80.84000000    59.94000000    23.54000000
   O     80.58000000    60.91000000    22.83000000
   H     80.25000000    61.75000000    25.81000000
   H     79.77000000    58.99000000    25.11000000
   H     81.32000000    59.74000000    25.62000000
   N     81.48000000    58.91000000    22.99000000
   C     82.06000000    57.69000000    23.51000000
   C     81.09000000    56.56000000    23.81000000
   O     80.01000000    56.60000000    23.21000000
   C     83.21000000    57.18000000    22.65000000
   C     84.35000000    58.19000000    22.58000000
   N     85.12000000    58.11000000    21.49000000
   O     84.65000000    59.02000000    23.43000000
   H     81.64000000    59.00000000    22.00000000
   H     82.44000000    57.98000000    24.50000000
   H     82.88000000    56.90000000    21.65000000
   H     83.73000000    56.40000000    23.21000000
   H     84.83000000    57.56000000    20.70000000
   H     85.82000000    58.83000000    21.32000000
   N     81.41000000    55.60000000    24.68000000
   C     82.45000000    55.63000000    25.69000000
   C     82.19000000    56.52000000    26.89000000
   O     81.96000000    57.72000000    26.76000000
   H     80.83000000    54.79000000    24.52000000
   H     83.44000000    55.75000000    25.24000000
   H     82.47000000    54.64000000    26.14000000
   N     82.13000000    55.99000000    28.12000000
   C     81.58000000    56.67000000    29.27000000
   C     82.54000000    56.46000000    30.44000000
   O     82.71000000    55.31000000    30.84000000
   C     80.24000000    56.02000000    29.57000000
   C     79.37000000    55.95000000    28.34000000
   C     78.75000000    57.06000000    27.74000000
   C     79.19000000    54.71000000    27.72000000
   C     77.96000000    56.88000000    26.59000000
   C     78.49000000    54.51000000    26.53000000
   C     77.85000000    55.62000000    25.96000000
   O     77.08000000    55.42000000    24.85000000
   H     82.28000000    55.01000000    28.29000000
   H     81.47000000    57.74000000    29.08000000
   H     79.74000000    56.50000000    30.41000000
   H     80.28000000    54.97000000    29.85000000
   H     78.83000000    57.99000000    28.29000000
   H     79.60000000    53.79000000    28.13000000
   H     77.48000000    57.73000000    26.14000000
   H     78.43000000    53.53000000    26.08000000
   H     77.33000000    54.61000000    24.38000000
   N     83.21000000    57.54000000    30.85000000
   C     84.32000000    57.49000000    31.78000000
   C     84.42000000    58.64000000    32.76000000
   O     85.21000000    58.48000000    33.69000000
   C     85.61000000    57.34000000    30.96000000
   C     85.97000000    55.94000000    30.47000000
   C     85.77000000    58.46000000    29.95000000
   C     86.37000000    54.98000000    31.59000000
   H     83.14000000    58.31000000    30.21000000
   H     84.20000000    56.62000000    32.42000000
   H     86.42000000    57.47000000    31.67000000
   H     86.87000000    56.05000000    29.87000000
   H     85.20000000    55.50000000    29.84000000
   H     85.55000000    59.43000000    30.39000000
   H     86.82000000    58.46000000    29.64000000
   H     85.20000000    58.27000000    29.03000000
   H     86.59000000    53.97000000    31.26000000
   H     87.21000000    55.41000000    32.14000000
   H     85.55000000    54.88000000    32.30000000
   N     83.69000000    59.76000000    32.73000000
   C     84.02000000    60.92000000    33.55000000
   C     84.50000000    62.16000000    32.80000000
   O     84.98000000    63.09000000    33.45000000
   C     82.86000000    61.28000000    34.46000000
   O     81.73000000    61.81000000    33.81000000
   H     83.00000000    59.95000000    32.03000000
   H     84.82000000    60.66000000    34.24000000
   H     83.18000000    62.03000000    35.18000000
   H     82.46000000    60.42000000    35.01000000
   H     81.51000000    61.27000000    33.04000000
   N     84.37000000    62.17000000    31.48000000
   C     84.46000000    63.27000000    30.54000000
   C     83.26000000    64.21000000    30.62000000
   O     82.84000000    64.72000000    29.58000000
   C     84.74000000    62.73000000    29.14000000
   H     83.98000000    61.33000000    31.08000000
   H     85.30000000    63.91000000    30.83000000
   H     84.96000000    63.50000000    28.41000000
   H     85.52000000    61.96000000    29.18000000
   H     83.85000000    62.17000000    28.83000000
   N     82.63000000    64.31000000    31.79000000
   C     81.41000000    65.04000000    32.08000000
   C     80.24000000    64.57000000    31.24000000
   O     79.34000000    65.35000000    30.93000000
   C     81.62000000    66.55000000    32.00000000
   H     83.12000000    63.79000000    32.51000000
   H     81.20000000    64.80000000    33.13000000
   H     82.56000000    66.76000000    32.52000000
   H     81.67000000    66.89000000    30.97000000
   H     80.78000000    67.01000000    32.51000000
   N     80.10000000    63.27000000    30.96000000
   C     79.16000000    62.69000000    30.03000000
   C     78.05000000    61.86000000    30.66000000
   O     76.92000000    61.80000000    30.20000000
   C     79.83000000    61.84000000    28.95000000
   C     80.35000000    60.45000000    29.33000000
   C     81.49000000    60.50000000    30.34000000
   O     81.24000000    60.88000000    31.50000000
   O     82.66000000    60.13000000    30.10000000
   H     80.79000000    62.65000000    31.37000000
   H     78.69000000    63.50000000    29.48000000
   H     80.69000000    62.35000000    28.51000000
   H     79.16000000    61.67000000    28.11000000
   H     80.54000000    59.85000000    28.44000000
   H     79.54000000    59.85000000    29.74000000
   N     78.39000000    61.36000000    31.85000000
   C     77.52000000    60.64000000    32.76000000
   H     76.56000000    60.45900000    32.27700000
   H     77.97900000    59.68700000    33.02500000
   H     77.36600000    61.23300000    33.66200000
   H     79.37000000    61.42000000    32.07000000
  Ca     73.21000000    61.35000000    21.88000000
   O     72.16000000    59.67000000    23.73000000
   H     71.82000000    59.59000000    24.62000000
   H     71.74000000    58.95000000    23.25000000
   O     74.46000000    63.68000000    21.43000000
   H     75.14000000    63.45000000    22.05000000
   H     74.93000000    63.96000000    20.64000000
   O     72.07000000    59.26000000    20.59000000
   H     71.88000000    58.38000000    20.92000000
   H     71.68000000    59.28000000    19.71000000
   O     75.21000000    59.54000000    22.40000000
   H     75.98000000    59.40000000    21.84000000
   H     75.56000000    59.51000000    23.29000000
   O     71.70000000    62.71000000    23.78000000
   H     72.15000000    63.53000000    24.01000000
   H     71.51000000    62.30000000    24.62000000
   O     74.57000000    60.75000000    19.68000000
   H     74.19000000    60.31000000    18.91000000
   H     75.36000000    61.17000000    19.35000000

Ca 1.00



