%chk=loop2.apoCaM-CA-Ng.Init31.run69.water7.chk
%nprocshared=20
%mem=10GB
%nosave
#b3lyp/svp scf=(tight,noincore,xqc) Test 
#IOP(5/87=12) Density=Current Pop=(MK,readradii) iop(6/33=2) iop(6/42=6)

loop2.apoCaM-CA-Ng.Init31.run69.water7 

   -2  1 
   C     81.34000000    67.81000000    14.83000000
   C     80.74000000    66.44000000    15.13000000
   O     81.00000000    65.97000000    16.23000000
   H     82.31600000    67.68400000    14.36100000
   H     80.68100000    68.35600000    14.15500000
   H     81.45400000    68.36900000    15.75900000
   N     79.90000000    65.80000000    14.31000000
   C     79.29000000    66.21000000    13.06000000
   C     79.31000000    65.15000000    11.97000000
   O     79.57000000    63.97000000    12.21000000
   C     77.87000000    66.65000000    13.39000000
   C     76.98000000    65.82000000    14.31000000
   O     77.39000000    64.68000000    14.64000000
   O     75.87000000    66.31000000    14.60000000
   H     79.68000000    64.94000000    14.78000000
   H     79.83000000    67.07000000    12.66000000
   H     77.30000000    66.78000000    12.47000000
   H     77.91000000    67.64000000    13.84000000
   N     79.16000000    65.64000000    10.74000000
   C     78.96000000    64.81000000     9.57000000
   C     77.93000000    63.70000000     9.75000000
   O     76.80000000    63.93000000    10.16000000
   C     80.26000000    64.37000000     8.91000000
   H     79.06000000    66.65000000    10.75000000
   H     78.57000000    65.36000000     8.72000000
   H     80.92000000    65.23000000     8.79000000
   H     80.79000000    63.65000000     9.54000000
   H     80.17000000    63.87000000     7.95000000
   N     78.24000000    62.49000000     9.30000000
   C     77.37000000    61.33000000     9.25000000
   C     78.12000000    60.10000000     9.76000000
   O     79.34000000    59.99000000     9.68000000
   C     76.71000000    61.11000000     7.89000000
   C     77.60000000    60.95000000     6.67000000
   O     77.21000000    60.96000000     5.48000000
   O     78.83000000    60.84000000     6.90000000
   H     79.18000000    62.37000000     8.94000000
   H     76.52000000    61.45000000     9.91000000
   H     75.97000000    61.89000000     7.73000000
   H     76.14000000    60.19000000     7.77000000
   N     77.36000000    59.19000000    10.38000000
   C     77.86000000    57.94000000    10.92000000
   C     76.75000000    56.91000000    11.05000000
   O     75.56000000    57.20000000    10.98000000
   H     76.35000000    59.23000000    10.45000000
   H     78.24000000    58.17000000    11.91000000
   H     78.62000000    57.40000000    10.36000000
   N     77.18000000    55.66000000    11.28000000
   C     76.41000000    54.45000000    11.44000000
   C     75.99000000    54.23000000    12.89000000
   O     75.08000000    53.43000000    13.09000000
   C     77.12000000    53.27000000    10.78000000
   C     76.49000000    51.88000000    10.77000000
   N     75.25000000    51.78000000    10.28000000
   O     77.07000000    50.94000000    11.32000000
   H     78.17000000    55.51000000    11.34000000
   H     75.46000000    54.44000000    10.91000000
   H     78.09000000    53.20000000    11.26000000
   H     77.32000000    53.55000000     9.75000000
   H     74.85000000    52.59000000     9.84000000
   H     74.83000000    50.86000000    10.23000000
   N     76.57000000    54.95000000    13.85000000
   C     76.01000000    55.05000000    15.18000000
   C     76.07000000    53.76000000    15.98000000
   O     76.77000000    52.90000000    15.47000000
   H     77.25000000    55.68000000    13.65000000
   H     74.97000000    55.38000000    15.08000000
   H     76.47000000    55.84000000    15.79000000
   N     75.41000000    53.68000000    17.14000000
   C     74.68000000    54.66000000    17.93000000
   C     75.51000000    55.74000000    18.61000000
   O     74.95000000    56.59000000    19.31000000
   C     73.67000000    54.02000000    18.87000000
   C     72.45000000    53.34000000    18.25000000
   O     74.38000000    53.10000000    19.67000000
   H     75.59000000    52.83000000    17.67000000
   H     74.15000000    55.26000000    17.20000000
   H     73.28000000    54.82000000    19.50000000
   H     74.09000000    53.20000000    20.57000000
   H     72.80000000    52.90000000    17.32000000
   H     72.03000000    52.63000000    18.96000000
   H     71.72000000    54.03000000    17.82000000
   N     76.84000000    55.73000000    18.53000000
   C     77.71000000    56.41000000    19.47000000
   C     77.41000000    56.12000000    20.93000000
   O     76.83000000    56.99000000    21.59000000
   C     77.75000000    57.92000000    19.22000000
   C     77.79000000    58.25000000    17.73000000
   C     78.88000000    58.50000000    20.07000000
   C     79.00000000    57.73000000    16.96000000
   H     77.31000000    55.00000000    18.01000000
   H     78.75000000    56.10000000    19.32000000
   H     76.81000000    58.36000000    19.56000000
   H     77.77000000    59.34000000    17.69000000
   H     76.88000000    57.88000000    17.25000000
   H     78.47000000    58.67000000    21.06000000
   H     79.68000000    57.76000000    20.15000000
   H     79.17000000    59.44000000    19.61000000
   H     78.93000000    56.67000000    16.76000000
   H     79.19000000    58.34000000    16.07000000
   H     79.86000000    57.87000000    17.61000000
   N     77.61000000    54.97000000    21.56000000
   C     78.07000000    53.73000000    20.96000000
   C     79.59000000    53.60000000    20.98000000
   O     80.16000000    53.60000000    19.89000000
   C     77.27000000    52.62000000    21.63000000
   C     77.17000000    52.53000000    23.15000000
   O     76.66000000    51.53000000    23.68000000
   O     77.94000000    53.24000000    23.84000000
   H     77.13000000    54.81000000    22.44000000
   H     77.80000000    53.58000000    19.92000000
   H     77.69000000    51.66000000    21.34000000
   H     76.28000000    52.74000000    21.21000000
   N     80.30000000    53.67000000    22.10000000
   C     81.74000000    53.50000000    22.22000000
   C     82.24000000    52.09000000    22.51000000
   O     81.43000000    51.25000000    22.90000000
   C     82.31000000    54.51000000    23.21000000
   C     81.95000000    54.45000000    24.68000000
   C     80.71000000    54.92000000    25.12000000
   C     82.86000000    53.83000000    25.55000000
   C     80.38000000    54.77000000    26.48000000
   C     82.48000000    53.67000000    26.89000000
   C     81.26000000    54.14000000    27.37000000
   H     79.71000000    53.79000000    22.91000000
   H     82.15000000    53.83000000    21.26000000
   H     81.91000000    55.47000000    22.87000000
   H     83.39000000    54.46000000    23.09000000
   H     80.14000000    55.48000000    24.39000000
   H     83.82000000    53.46000000    25.22000000
   H     79.48000000    55.27000000    26.79000000
   H     83.17000000    53.14000000    27.53000000
   H     81.01000000    54.11000000    28.43000000
   N     83.52000000    51.74000000    22.44000000
   C     84.60000000    52.36000000    21.69000000
   C     84.35000000    52.69000000    20.23000000
   O     83.32000000    52.34000000    19.65000000
   C     85.81000000    51.46000000    21.90000000
   C     85.18000000    50.08000000    22.02000000
   C     83.97000000    50.43000000    22.88000000
   H     84.82000000    53.37000000    22.03000000
   H     86.44000000    51.57000000    21.02000000
   H     86.28000000    51.67000000    22.86000000
   H     84.75000000    49.84000000    21.05000000
   H     85.85000000    49.30000000    22.37000000
   H     83.23000000    49.67000000    22.67000000
   H     84.25000000    50.45000000    23.94000000
   N     85.36000000    53.32000000    19.62000000
   C     85.47000000    53.64000000    18.21000000
   C     86.10000000    55.02000000    18.02000000
   O     86.90000000    55.15000000    17.10000000
   C     86.23000000    52.57000000    17.43000000
   C     85.48000000    51.25000000    17.28000000
   C     86.28000000    50.25000000    16.46000000
   O     87.08000000    49.45000000    16.99000000
   O     86.22000000    50.23000000    15.21000000
   H     86.15000000    53.63000000    20.17000000
   H     84.46000000    53.71000000    17.81000000
   H     87.12000000    52.36000000    18.01000000
   H     86.43000000    52.92000000    16.42000000
   H     84.50000000    51.36000000    16.81000000
   H     85.28000000    50.85000000    18.27000000
   N     85.90000000    56.08000000    18.80000000
   C     85.00000000    56.38000000    19.89000000
   H     84.04100000    55.89400000    19.71300000
   H     85.42500000    56.01300000    20.82400000
   H     84.85400000    57.45800000    19.95500000
   H     86.32000000    56.84000000    18.28000000
  Ca     80.90000000    59.67000000     7.71000000
   O     83.50000000    59.27000000     8.13000000
   H     83.90000000    58.42000000     8.33000000
   H     83.96000000    59.89000000     8.70000000
   O     81.40000000    57.67000000     9.70000000
   H     81.18000000    57.76000000    10.63000000
   H     81.95000000    56.89000000     9.66000000
   O     81.63000000    57.16000000     6.59000000
   H     81.84000000    57.01000000     5.66000000
   H     81.35000000    56.30000000     6.90000000
   O     81.87000000    61.29000000     9.64000000
   H     81.61000000    61.33000000    10.56000000
   H     82.72000000    61.73000000     9.61000000
   O     82.48000000    61.47000000     6.61000000
   H     82.92000000    61.61000000     5.78000000
   H     82.95000000    62.02000000     7.23000000
   O     80.55000000    59.49000000     5.04000000
   H     81.10000000    60.02000000     4.46000000
   H     79.65000000    59.74000000     4.81000000
   O     78.86000000    57.78000000     7.80000000
   H     78.07000000    57.97000000     7.30000000
   H     78.73000000    56.88000000     8.11000000

Ca 1.00



