%chk=loop1.holoCaM-CaMKII.run2.water2.chk
%nprocshared=20
%mem=10GB
%nosave
#b3lyp/svp scf=(tight,noincore,xqc) Test 
#IOP(5/87=12) Density=Current Pop=(MK,readradii) iop(6/33=2) iop(6/42=6)

loop1.holoCaM-CaMKII.run2.water2 

   0  1 
   C     71.11000000    49.60000000    21.40000000
   C     72.50000000    49.71000000    20.78000000
   O     73.04000000    48.73000000    20.26000000
   H     70.38800000    49.33500000    20.62700000
   H     71.11500000    48.83000000    22.17100000
   H     70.83200000    50.55600000    21.84300000
   N     73.15000000    50.87000000    20.83000000
   C     74.45000000    51.08000000    20.23000000
   C     75.63000000    50.80000000    21.15000000
   O     76.36000000    51.67000000    21.63000000
   C     74.46000000    52.51000000    19.70000000
   C     75.82000000    52.91000000    19.16000000
   O     76.23000000    54.09000000    19.18000000
   O     76.48000000    52.06000000    18.53000000
   H     72.84000000    51.66000000    21.37000000
   H     74.53000000    50.37000000    19.41000000
   H     74.24000000    53.11000000    20.59000000
   H     73.68000000    52.59000000    18.95000000
   N     75.76000000    49.52000000    21.50000000
   C     76.63000000    49.11000000    22.59000000
   C     78.12000000    49.27000000    22.30000000
   O     78.92000000    49.08000000    23.21000000
   C     76.28000000    47.63000000    22.81000000
   C     74.91000000    47.29000000    23.38000000
   C     74.60000000    45.80000000    23.26000000
   C     73.44000000    45.48000000    24.20000000
   N     72.16000000    45.67000000    23.51000000
   H     75.29000000    48.78000000    21.00000000
   H     76.30000000    49.74000000    23.41000000
   H     77.03000000    47.39000000    23.56000000
   H     76.56000000    47.13000000    21.88000000
   H     74.17000000    47.89000000    22.84000000
   H     74.82000000    47.64000000    24.40000000
   H     75.47000000    45.28000000    23.66000000
   H     74.47000000    45.55000000    22.21000000
   H     73.44000000    46.05000000    25.13000000
   H     73.48000000    44.44000000    24.52000000
   H     72.01000000    46.67000000    23.50000000
   H     72.23000000    45.32000000    22.56000000
   H     71.47000000    45.19000000    24.06000000
   N     78.54000000    49.76000000    21.14000000
   C     79.93000000    49.91000000    20.76000000
   C     80.23000000    51.32000000    20.24000000
   O     81.31000000    51.56000000    19.71000000
   C     80.29000000    48.84000000    19.74000000
   C     79.45000000    48.82000000    18.47000000
   O     79.63000000    47.87000000    17.69000000
   O     78.47000000    49.59000000    18.37000000
   H     77.87000000    49.81000000    20.39000000
   H     80.54000000    49.77000000    21.65000000
   H     80.15000000    47.85000000    20.18000000
   H     81.36000000    48.84000000    19.54000000
   N     79.27000000    52.22000000    20.46000000
   C     79.44000000    53.65000000    20.62000000
   C     79.82000000    54.38000000    19.34000000
   O     80.75000000    55.19000000    19.42000000
   H     78.39000000    51.79000000    20.73000000
   H     80.09000000    53.87000000    21.46000000
   H     78.51000000    54.02000000    21.03000000
   N     79.21000000    54.14000000    18.17000000
   C     79.45000000    54.69000000    16.85000000
   C     78.36000000    55.59000000    16.31000000
   O     78.56000000    56.33000000    15.35000000
   C     79.81000000    53.52000000    15.94000000
   C     78.67000000    52.53000000    15.70000000
   O     77.49000000    52.95000000    15.67000000
   O     78.96000000    51.33000000    15.53000000
   H     78.32000000    53.67000000    18.21000000
   H     80.36000000    55.29000000    16.86000000
   H     80.69000000    53.04000000    16.36000000
   H     80.08000000    53.90000000    14.96000000
   N     77.18000000    55.57000000    16.94000000
   C     76.16000000    56.58000000    16.68000000
   C     75.05000000    56.06000000    15.77000000
   O     74.19000000    56.90000000    15.48000000
   H     77.15000000    54.97000000    17.74000000
   H     76.65000000    57.50000000    16.37000000
   H     75.74000000    56.75000000    17.66000000
   N     75.06000000    54.79000000    15.39000000
   C     74.11000000    54.01000000    14.62000000
   C     73.75000000    52.69000000    15.30000000
   O     74.57000000    52.07000000    15.97000000
   C     74.68000000    53.72000000    13.24000000
   C     74.66000000    54.93000000    12.31000000
   O     76.04000000    53.33000000    13.21000000
   H     75.87000000    54.30000000    15.77000000
   H     73.18000000    54.58000000    14.60000000
   H     74.09000000    52.95000000    12.75000000
   H     76.38000000    53.14000000    14.09000000
   H     75.29000000    55.74000000    12.68000000
   H     74.96000000    54.58000000    11.32000000
   H     73.65000000    55.32000000    12.20000000
   N     72.50000000    52.27000000    15.09000000
   C     71.82000000    51.09000000    15.56000000
   C     71.48000000    50.30000000    14.30000000
   O     70.82000000    50.70000000    13.35000000
   C     70.51000000    51.41000000    16.27000000
   C     70.84000000    52.15000000    17.57000000
   C     69.69000000    50.15000000    16.52000000
   C     69.62000000    52.93000000    18.04000000
   H     71.86000000    52.93000000    14.67000000
   H     72.48000000    50.49000000    16.18000000
   H     70.06000000    51.96000000    15.44000000
   H     71.57000000    52.95000000    17.41000000
   H     71.27000000    51.48000000    18.31000000
   H     70.23000000    49.46000000    17.17000000
   H     68.71000000    50.25000000    17.00000000
   H     69.54000000    49.57000000    15.61000000
   H     69.24000000    53.52000000    17.21000000
   H     68.93000000    52.34000000    18.65000000
   H     70.00000000    53.66000000    18.75000000
   N     72.03000000    49.09000000    14.18000000
   C     71.78000000    48.09000000    13.16000000
   C     70.55000000    47.24000000    13.45000000
   O     70.16000000    47.13000000    14.61000000
   C     72.95000000    47.12000000    13.03000000
   C     74.16000000    47.74000000    12.32000000
   O     73.23000000    46.65000000    14.32000000
   H     72.55000000    48.74000000    14.97000000
   H     71.66000000    48.55000000    12.18000000
   H     72.60000000    46.34000000    12.36000000
   H     73.61000000    47.29000000    14.92000000
   H     74.44000000    48.70000000    12.77000000
   H     74.94000000    46.99000000    12.26000000
   H     73.89000000    47.83000000    11.27000000
   N     69.89000000    46.66000000    12.45000000
   C     68.75000000    45.82000000    12.75000000
   C     69.09000000    44.57000000    13.54000000
   O     68.30000000    44.06000000    14.34000000
   C     68.06000000    45.40000000    11.45000000
   C     67.24000000    46.54000000    10.87000000
   O     68.99000000    44.89000000    10.52000000
   H     70.16000000    46.82000000    11.48000000
   H     68.09000000    46.34000000    13.44000000
   H     67.38000000    44.56000000    11.56000000
   H     68.48000000    44.63000000     9.75000000
   H     67.93000000    47.30000000    10.51000000
   H     66.56000000    46.20000000    10.09000000
   H     66.56000000    46.87000000    11.66000000
   N     70.34000000    44.09000000    13.53000000
   C     70.94000000    43.25000000    14.56000000
   C     71.11000000    43.78000000    15.97000000
   O     70.70000000    43.11000000    16.92000000
   C     72.26000000    42.70000000    14.03000000
   C     72.64000000    41.44000000    14.80000000
   C     73.99000000    40.88000000    14.35000000
   C     74.40000000    39.72000000    15.26000000
   N     75.64000000    39.04000000    14.87000000
   H     70.98000000    44.57000000    12.92000000
   H     70.30000000    42.38000000    14.65000000
   H     72.92000000    43.57000000    14.02000000
   H     72.16000000    42.36000000    13.00000000
   H     71.90000000    40.65000000    14.61000000
   H     72.67000000    41.70000000    15.85000000
   H     74.74000000    41.66000000    14.43000000
   H     73.87000000    40.48000000    13.34000000
   H     73.61000000    38.97000000    15.29000000
   H     74.52000000    40.03000000    16.30000000
   H     76.42000000    39.66000000    15.03000000
   H     75.79000000    38.20000000    15.41000000
   H     75.69000000    38.87000000    13.88000000
   N     71.64000000    45.00000000    16.09000000
   C     71.62000000    45.66000000    17.38000000
   C     70.25000000    45.86000000    18.01000000
   O     70.07000000    45.69000000    19.22000000
   C     72.33000000    47.00000000    17.27000000
   C     73.85000000    46.84000000    17.33000000
   C     74.55000000    48.13000000    16.93000000
   O     74.38000000    48.54000000    15.75000000
   O     75.30000000    48.73000000    17.73000000
   H     72.01000000    45.49000000    15.29000000
   H     72.12000000    45.02000000    18.12000000
   H     72.09000000    47.57000000    18.17000000
   H     72.08000000    47.54000000    16.36000000
   H     74.19000000    46.10000000    16.61000000
   H     74.04000000    46.42000000    18.32000000
   N     69.31000000    46.28000000    17.16000000
   C     67.89000000    46.34000000    17.45000000
   H     67.33300000    45.88900000    16.62900000
   H     67.68300000    45.79500000    18.37100000
   H     67.58600000    47.38000000    17.56700000
   H     69.60000000    46.52000000    16.23000000
  Ca     76.72000000    50.48000000    16.57000000
   O     76.30000000    50.42000000    13.93000000
   H     75.69000000    49.69000000    13.88000000
   H     76.48000000    50.65000000    13.02000000
   O     77.89000000    48.33000000    15.70000000
   H     78.54000000    48.06000000    16.35000000
   H     77.82000000    47.58000000    15.10000000

Ca 1.00



