%chk=loop2.apoCaM-CA-Ng.Init31.run5.water3.chk
%nprocshared=20
%mem=10GB
%nosave
#b3lyp/svp scf=(tight,noincore,xqc) Test 
#IOP(5/87=12) Density=Current Pop=(MK,readradii) iop(6/33=2) iop(6/42=6)

loop2.apoCaM-CA-Ng.Init31.run5.water3 

   -2  1 
   C     46.55000000    40.94000000    11.17000000
   C     45.99000000    42.28000000    10.73000000
   O     46.75000000    43.24000000    10.62000000
   H     47.49000000    41.09600000    11.69900000
   H     45.83800000    40.44800000    11.83300000
   H     46.72600000    40.31400000    10.29500000
   N     44.70000000    42.50000000    10.45000000
   C     43.52000000    41.66000000    10.42000000
   C     42.35000000    42.12000000    11.27000000
   O     41.88000000    43.25000000    11.17000000
   C     43.07000000    41.37000000     8.99000000
   C     43.23000000    42.52000000     8.01000000
   O     43.42000000    42.27000000     6.80000000
   O     43.13000000    43.72000000     8.35000000
   H     44.50000000    43.49000000    10.40000000
   H     43.77000000    40.65000000    10.75000000
   H     42.00000000    41.15000000     8.96000000
   H     43.60000000    40.48000000     8.66000000
   N     41.79000000    41.17000000    12.02000000
   C     40.49000000    41.10000000    12.66000000
   C     39.26000000    41.51000000    11.87000000
   O     38.18000000    41.02000000    12.21000000
   C     40.61000000    41.93000000    13.94000000
   H     42.27000000    40.28000000    11.99000000
   H     40.33000000    40.06000000    12.93000000
   H     40.65000000    43.00000000    13.69000000
   H     39.75000000    41.68000000    14.55000000
   H     41.48000000    41.68000000    14.54000000
   N     39.35000000    42.22000000    10.75000000
   C     38.25000000    42.41000000     9.83000000
   C     38.96000000    42.61000000     8.50000000
   O     39.84000000    43.46000000     8.33000000
   C     37.45000000    43.64000000    10.23000000
   C     38.16000000    44.90000000    10.72000000
   O     39.09000000    45.43000000    10.08000000
   O     37.76000000    45.40000000    11.80000000
   H     40.28000000    42.46000000    10.42000000
   H     37.53000000    41.59000000     9.82000000
   H     36.68000000    43.30000000    10.92000000
   H     36.79000000    43.99000000     9.44000000
   N     38.72000000    41.71000000     7.54000000
   C     39.49000000    41.50000000     6.33000000
   C     39.45000000    42.69000000     5.38000000
   O     38.67000000    42.59000000     4.44000000
   H     37.98000000    41.06000000     7.74000000
   H     39.10000000    40.67000000     5.74000000
   H     40.49000000    41.31000000     6.72000000
   N     40.23000000    43.75000000     5.63000000
   C     40.22000000    45.07000000     5.02000000
   C     41.58000000    45.74000000     5.11000000
   O     41.75000000    46.89000000     4.71000000
   C     39.08000000    45.90000000     5.60000000
   C     39.16000000    46.60000000     6.95000000
   N     38.06000000    47.16000000     7.45000000
   O     40.25000000    46.61000000     7.53000000
   H     40.41000000    43.75000000     6.62000000
   H     40.02000000    45.01000000     3.95000000
   H     38.21000000    45.25000000     5.58000000
   H     38.93000000    46.73000000     4.91000000
   H     37.17000000    47.15000000     6.98000000
   H     38.09000000    47.58000000     8.37000000
   N     42.62000000    45.10000000     5.63000000
   C     43.93000000    45.70000000     5.80000000
   C     44.06000000    46.71000000     6.93000000
   O     43.28000000    46.61000000     7.87000000
   H     42.38000000    44.21000000     6.05000000
   H     44.35000000    46.15000000     4.90000000
   H     44.68000000    44.90000000     5.85000000
   N     44.99000000    47.67000000     6.92000000
   C     46.00000000    47.96000000     5.93000000
   C     47.44000000    47.94000000     6.42000000
   O     48.32000000    47.97000000     5.55000000
   C     45.73000000    49.25000000     5.16000000
   C     44.59000000    49.07000000     4.16000000
   O     45.37000000    50.32000000     6.00000000
   H     44.90000000    48.37000000     7.64000000
   H     46.10000000    47.25000000     5.11000000
   H     46.64000000    49.46000000     4.60000000
   H     45.80000000    51.10000000     5.65000000
   H     43.78000000    48.70000000     4.79000000
   H     44.35000000    50.01000000     3.65000000
   H     44.77000000    48.19000000     3.55000000
   N     47.73000000    47.69000000     7.69000000
   C     49.00000000    47.84000000     8.38000000
   C     49.56000000    49.22000000     8.09000000
   O     50.23000000    49.50000000     7.10000000
   C     50.04000000    46.75000000     8.15000000
   C     49.43000000    45.37000000     8.41000000
   C     51.30000000    46.92000000     9.00000000
   C     50.45000000    44.24000000     8.47000000
   H     46.94000000    47.38000000     8.25000000
   H     48.76000000    47.83000000     9.44000000
   H     50.31000000    46.76000000     7.10000000
   H     48.73000000    45.07000000     7.63000000
   H     48.88000000    45.41000000     9.35000000
   H     51.08000000    46.65000000    10.03000000
   H     52.06000000    46.26000000     8.58000000
   H     51.72000000    47.92000000     8.98000000
   H     49.88000000    43.31000000     8.42000000
   H     51.06000000    44.19000000     7.57000000
   H     51.01000000    44.41000000     9.38000000
   N     49.30000000    50.30000000     8.84000000
   C     48.90000000    50.34000000    10.23000000
   C     49.82000000    49.61000000    11.20000000
   O     49.27000000    48.84000000    11.99000000
   C     48.63000000    51.75000000    10.76000000
   C     49.78000000    52.73000000    10.58000000
   O     50.92000000    52.45000000    10.16000000
   O     49.53000000    53.91000000    10.94000000
   H     49.42000000    51.23000000     8.45000000
   H     47.98000000    49.76000000    10.33000000
   H     48.31000000    51.67000000    11.80000000
   H     47.77000000    52.13000000    10.22000000
   N     51.11000000    49.92000000    11.28000000
   C     51.98000000    49.30000000    12.26000000
   C     52.10000000    50.08000000    13.56000000
   O     51.87000000    51.29000000    13.54000000
   C     53.32000000    48.97000000    11.60000000
   C     54.26000000    50.13000000    11.82000000
   C     54.38000000    51.22000000    10.95000000
   C     55.08000000    50.03000000    12.95000000
   C     55.26000000    52.25000000    11.31000000
   C     55.96000000    51.07000000    13.27000000
   C     56.07000000    52.20000000    12.45000000
   H     51.41000000    50.73000000    10.76000000
   H     51.63000000    48.29000000    12.48000000
   H     53.27000000    48.85000000    10.51000000
   H     53.82000000    48.15000000    12.11000000
   H     53.74000000    51.39000000    10.10000000
   H     55.15000000    49.13000000    13.54000000
   H     55.33000000    53.08000000    10.63000000
   H     56.52000000    51.00000000    14.19000000
   H     56.86000000    52.91000000    12.67000000
   N     52.39000000    49.46000000    14.70000000
   C     52.75000000    48.07000000    14.91000000
   C     51.46000000    47.30000000    15.15000000
   O     50.35000000    47.77000000    14.90000000
   C     53.55000000    48.15000000    16.21000000
   C     53.02000000    49.34000000    17.01000000
   C     52.58000000    50.27000000    15.88000000
   H     53.32000000    47.54000000    14.15000000
   H     53.58000000    47.16000000    16.68000000
   H     54.59000000    48.24000000    15.91000000
   H     52.20000000    48.99000000    17.63000000
   H     53.80000000    49.79000000    17.62000000
   H     51.68000000    50.82000000    16.16000000
   H     53.36000000    51.00000000    15.65000000
   N     51.56000000    46.07000000    15.66000000
   C     50.44000000    45.17000000    15.86000000
   C     50.69000000    43.67000000    15.72000000
   O     49.93000000    42.92000000    16.33000000
   C     49.70000000    45.60000000    17.11000000
   C     50.56000000    45.88000000    18.34000000
   C     51.20000000    44.66000000    18.99000000
   O     50.44000000    43.92000000    19.66000000
   O     52.41000000    44.44000000    18.78000000
   H     52.46000000    45.70000000    15.91000000
   H     49.77000000    45.37000000    15.02000000
   H     49.02000000    44.80000000    17.39000000
   H     49.12000000    46.49000000    16.85000000
   H     49.92000000    46.32000000    19.11000000
   H     51.25000000    46.70000000    18.18000000
   N     51.75000000    43.10000000    15.15000000
   C     52.67000000    43.60000000    14.15000000
   H     53.62200000    43.07700000    14.23900000
   H     52.25500000    43.43100000    13.15600000
   H     52.82700000    44.66800000    14.30200000
   H     51.91000000    42.13000000    15.41000000
  Ca     41.63000000    45.37000000     9.56000000
   O     43.98000000    45.40000000    10.92000000
   H     43.98000000    45.25000000    11.87000000
   H     44.54000000    46.17000000    10.80000000
   O     41.01000000    46.14000000    12.06000000
   H     40.06000000    46.27000000    12.16000000
   H     41.39000000    46.49000000    12.86000000
   O     41.91000000    48.01000000    10.17000000
   H     41.40000000    48.77000000     9.89000000
   H     42.63000000    48.39000000    10.68000000

Ca 1.00



