%chk=loop4.apoCaM-CA-Ng.Init31.run56.water4.chk
%nprocshared=20
%mem=10GB
%nosave
#b3lyp/svp scf=(tight,noincore,xqc) Test 
#IOP(5/87=12) Density=Current Pop=(MK,readradii) iop(6/33=2) iop(6/42=6)

loop4.apoCaM-CA-Ng.Init31.run56.water4 

   -3  1 
   C     95.33000000    47.38000000    -0.60000000
   C     96.42000000    48.09000000     0.19000000
   O     96.46000000    49.32000000     0.16000000
   H     94.47600000    48.04600000    -0.71900000
   H     95.71400000    47.10300000    -1.58200000
   H     95.01900000    46.48300000    -0.06500000
   N     97.35000000    47.40000000     0.86000000
   C     97.51000000    45.96000000     0.91000000
   C     97.15000000    45.50000000     2.32000000
   O     96.56000000    44.44000000     2.52000000
   C     98.97000000    45.65000000     0.59000000
   C     99.46000000    46.30000000    -0.69000000
   O     98.65000000    46.43000000    -1.63000000
   O    100.68000000    46.49000000    -0.90000000
   H     98.06000000    48.03000000     1.20000000
   H     96.83000000    45.37000000     0.30000000
   H     99.29000000    44.61000000     0.50000000
   H     99.58000000    46.07000000     1.39000000
   N     97.50000000    46.25000000     3.37000000
   C     96.94000000    46.17000000     4.70000000
   C     97.34000000    44.92000000     5.46000000
   O     96.52000000    44.21000000     6.04000000
   C     97.22000000    47.47000000     5.45000000
   C     96.55000000    48.68000000     4.79000000
   C     96.97000000    47.40000000     6.95000000
   C     95.04000000    48.49000000     4.76000000
   H     98.18000000    46.98000000     3.21000000
   H     95.86000000    46.02000000     4.59000000
   H     98.27000000    47.76000000     5.41000000
   H     96.84000000    48.85000000     3.75000000
   H     96.84000000    49.53000000     5.40000000
   H     97.60000000    46.70000000     7.50000000
   H     97.08000000    48.37000000     7.44000000
   H     95.95000000    47.09000000     7.19000000
   H     94.71000000    47.57000000     4.27000000
   H     94.76000000    48.42000000     5.81000000
   H     94.55000000    49.41000000     4.44000000
   N     98.63000000    44.59000000     5.44000000
   C     99.26000000    43.44000000     6.07000000
   C    100.32000000    42.69000000     5.28000000
   O    100.89000000    41.73000000     5.78000000
   C     99.76000000    44.01000000     7.40000000
   C    100.07000000    42.82000000     8.29000000
   O    101.13000000    42.80000000     8.96000000
   O     99.22000000    41.91000000     8.37000000
   H     99.25000000    45.22000000     4.95000000
   H     98.58000000    42.62000000     6.27000000
   H     98.91000000    44.50000000     7.88000000
   H    100.59000000    44.70000000     7.23000000
   N    100.66000000    43.11000000     4.06000000
   C    101.76000000    42.52000000     3.32000000
   C    103.15000000    42.76000000     3.89000000
   O    103.38000000    43.50000000     4.85000000
   H    100.37000000    44.04000000     3.76000000
   H    101.83000000    42.91000000     2.31000000
   H    101.66000000    41.43000000     3.35000000
   N    104.14000000    42.13000000     3.25000000
   C    105.56000000    42.15000000     3.53000000
   C    105.90000000    41.19000000     4.66000000
   O    105.49000000    40.05000000     4.82000000
   C    106.39000000    41.78000000     2.30000000
   C    106.03000000    40.42000000     1.72000000
   O    106.96000000    39.72000000     1.27000000
   O    104.86000000    40.01000000     1.61000000
   H    103.78000000    41.45000000     2.59000000
   H    105.90000000    43.13000000     3.86000000
   H    107.46000000    41.77000000     2.53000000
   H    106.18000000    42.57000000     1.58000000
   N    106.71000000    41.61000000     5.63000000
   C    107.45000000    42.85000000     5.70000000
   C    108.38000000    42.87000000     6.90000000
   O    108.42000000    41.87000000     7.62000000
   H    106.95000000    40.85000000     6.26000000
   H    106.71000000    43.64000000     5.87000000
   H    108.10000000    43.09000000     4.87000000
   N    109.11000000    43.89000000     7.35000000
   C    109.12000000    45.28000000     6.92000000
   C    107.75000000    45.92000000     6.82000000
   O    106.77000000    45.50000000     7.43000000
   C    109.98000000    45.42000000     5.67000000
   C    111.43000000    44.96000000     5.82000000
   C    112.30000000    45.74000000     6.80000000
   N    112.67000000    45.18000000     7.96000000
   O    112.67000000    46.90000000     6.61000000
   H    109.55000000    43.71000000     8.24000000
   H    109.63000000    45.82000000     7.72000000
   H    110.01000000    46.47000000     5.38000000
   H    109.61000000    44.95000000     4.75000000
   H    111.80000000    45.11000000     4.81000000
   H    111.29000000    43.91000000     6.06000000
   H    112.51000000    44.21000000     8.16000000
   H    113.08000000    45.73000000     8.71000000
   N    107.70000000    47.00000000     6.03000000
   C    106.47000000    47.68000000     5.68000000
   C    106.60000000    49.18000000     5.94000000
   O    107.67000000    49.71000000     6.20000000
   C    106.06000000    47.49000000     4.22000000
   C    105.28000000    46.22000000     3.89000000
   C    107.10000000    47.66000000     3.11000000
   H    108.54000000    47.42000000     5.67000000
   H    105.65000000    47.36000000     6.31000000
   H    105.41000000    48.34000000     4.03000000
   H    104.44000000    46.08000000     4.57000000
   H    104.87000000    46.29000000     2.89000000
   H    105.98000000    45.38000000     3.94000000
   H    107.45000000    46.72000000     2.69000000
   H    106.68000000    48.33000000     2.36000000
   H    107.94000000    48.24000000     3.49000000
   N    105.57000000    50.00000000     5.71000000
   C    105.59000000    51.42000000     5.95000000
   C    106.57000000    52.17000000     5.05000000
   O    107.07000000    53.25000000     5.39000000
   C    104.16000000    51.92000000     5.75000000
   C    103.86000000    53.33000000     6.23000000
   N    103.47000000    54.26000000     5.36000000
   O    103.95000000    53.51000000     7.45000000
   H    104.69000000    49.64000000     5.36000000
   H    105.90000000    51.65000000     6.97000000
   H    103.51000000    51.21000000     6.26000000
   H    103.89000000    51.85000000     4.70000000
   H    103.55000000    54.15000000     4.36000000
   H    103.38000000    55.21000000     5.71000000
   N    106.83000000    51.59000000     3.88000000
   C    107.66000000    52.05000000     2.79000000
   C    107.03000000    51.81000000     1.42000000
   O    106.58000000    50.71000000     1.12000000
   C    109.05000000    51.42000000     2.89000000
   C    110.02000000    51.98000000     1.88000000
   C    110.89000000    52.97000000     2.34000000
   C    110.18000000    51.47000000     0.59000000
   C    111.80000000    53.52000000     1.43000000
   C    111.06000000    52.04000000    -0.34000000
   C    111.89000000    53.09000000     0.09000000
   O    113.01000000    53.45000000    -0.60000000
   H    106.37000000    50.72000000     3.65000000
   H    107.86000000    53.12000000     2.85000000
   H    109.00000000    50.35000000     2.68000000
   H    109.47000000    51.54000000     3.89000000
   H    110.84000000    53.41000000     3.33000000
   H    109.57000000    50.67000000     0.21000000
   H    112.49000000    54.29000000     1.74000000
   H    111.18000000    51.54000000    -1.29000000
   H    113.57000000    54.06000000    -0.11000000
   N    107.05000000    52.85000000     0.59000000
   C    106.43000000    53.03000000    -0.71000000
   C    104.99000000    53.49000000    -0.51000000
   O    104.72000000    54.53000000     0.08000000
   C    107.19000000    54.05000000    -1.55000000
   C    108.62000000    53.80000000    -2.02000000
   C    109.13000000    54.94000000    -2.89000000
   O    109.31000000    54.75000000    -4.11000000
   O    109.45000000    56.02000000    -2.35000000
   H    107.54000000    53.66000000     0.95000000
   H    106.47000000    52.13000000    -1.33000000
   H    107.26000000    54.99000000    -1.00000000
   H    106.53000000    54.22000000    -2.39000000
   H    108.60000000    52.87000000    -2.59000000
   H    109.30000000    53.76000000    -1.17000000
   N    104.04000000    52.73000000    -1.08000000
   C    102.64000000    53.06000000    -0.99000000
   C    102.00000000    52.63000000     0.33000000
   O    102.17000000    51.50000000     0.79000000
   C    101.85000000    52.47000000    -2.15000000
   C    102.00000000    51.00000000    -2.54000000
   C    100.85000000    50.42000000    -3.37000000
   O    100.29000000    51.18000000    -4.19000000
   O    100.45000000    49.27000000    -3.10000000
   H    104.34000000    51.97000000    -1.67000000
   H    102.50000000    54.14000000    -1.07000000
   H    102.08000000    53.06000000    -3.04000000
   H    100.77000000    52.50000000    -1.96000000
   H    102.19000000    50.51000000    -1.59000000
   H    102.93000000    51.00000000    -3.10000000
   N    101.29000000    53.53000000     1.00000000
   C    100.34000000    53.23000000     2.05000000
   H     99.39600000    52.91300000     1.60600000
   H    100.73200000    52.43000000     2.67800000
   H    100.17500000    54.12000000     2.65700000
   H    101.29000000    54.51000000     0.75000000
  Ca    100.53800000    46.76000000    -3.50800000
   O    101.39800000    48.61000000    -5.65800000
   H    101.53800000    49.49000000    -6.00800000
   H    101.72800000    48.02000000    -6.33800000
   O    103.11800000    47.11000000    -3.03800000
   H    103.71800000    47.42000000    -3.71800000
   H    103.68800000    46.72000000    -2.37800000
   O    100.97800000    44.05000000    -2.83800000
   H    101.72800000    43.78000000    -2.30800000
   H    100.25800000    43.50000000    -2.53800000
   O    102.06800000    45.40000000    -5.31800000
   H    101.73800000    45.18000000    -6.18800000
   H    102.73800000    44.73000000    -5.14800000

Ca 1.00



