%chk=loop2.apoCaM-CA-Ng.Init295.run91.water3.chk
%nprocshared=20
%mem=10GB
%nosave
#b3lyp/svp scf=(tight,noincore,xqc) Test 
#IOP(5/87=12) Density=Current Pop=(MK,readradii) iop(6/33=2) iop(6/42=6)

loop2.apoCaM-CA-Ng.Init295.run91.water3 

   -2  1 
   C    123.48000000     0.28000000    79.41000000
   C    123.84000000     0.86000000    80.77000000
   O    124.24000000     2.01000000    80.89000000
   H    122.64100000     0.83500000    78.99000000
   H    124.33800000     0.35900000    78.74200000
   H    123.20200000    -0.76800000    79.52300000
   N    123.65000000     0.09000000    81.85000000
   C    124.14000000     0.36000000    83.18000000
   C    123.09000000     0.85000000    84.17000000
   O    123.32000000     1.15000000    85.33000000
   C    124.86000000    -0.88000000    83.73000000
   C    126.01000000    -0.63000000    84.69000000
   O    126.56000000    -1.56000000    85.30000000
   O    126.26000000     0.56000000    84.99000000
   H    123.32000000    -0.85000000    81.69000000
   H    124.82000000     1.21000000    83.08000000
   H    125.23000000    -1.47000000    82.89000000
   H    124.11000000    -1.49000000    84.22000000
   N    121.83000000     1.01000000    83.77000000
   C    120.79000000     1.61000000    84.58000000
   C    119.34000000     1.22000000    84.32000000
   O    119.03000000     0.67000000    83.27000000
   C    120.99000000     3.09000000    84.28000000
   H    121.61000000     0.85000000    82.79000000
   H    121.04000000     1.36000000    85.61000000
   H    121.98000000     3.50000000    84.49000000
   H    120.60000000     3.40000000    83.31000000
   H    120.34000000     3.60000000    84.99000000
   N    118.37000000     1.53000000    85.18000000
   C    118.47000000     2.11000000    86.51000000
   C    119.07000000     1.17000000    87.54000000
   O    119.41000000     1.64000000    88.63000000
   C    117.12000000     2.64000000    86.96000000
   C    117.12000000     3.29000000    88.34000000
   O    117.99000000     4.15000000    88.58000000
   O    116.34000000     2.92000000    89.25000000
   H    117.44000000     1.29000000    84.88000000
   H    119.07000000     3.02000000    86.51000000
   H    116.33000000     1.90000000    86.83000000
   H    116.77000000     3.37000000    86.22000000
   N    119.23000000    -0.13000000    87.27000000
   C    119.87000000    -1.09000000    88.14000000
   C    121.23000000    -1.50000000    87.61000000
   O    121.58000000    -1.20000000    86.47000000
   H    119.12000000    -0.32000000    86.28000000
   H    119.13000000    -1.89000000    88.21000000
   H    120.13000000    -0.55000000    89.05000000
   N    121.95000000    -2.40000000    88.30000000
   C    121.56000000    -3.12000000    89.49000000
   C    120.60000000    -4.29000000    89.34000000
   O    120.81000000    -5.16000000    88.50000000
   C    122.85000000    -3.61000000    90.16000000
   C    122.68000000    -3.89000000    91.65000000
   N    123.78000000    -4.33000000    92.26000000
   O    121.65000000    -3.68000000    92.29000000
   H    122.85000000    -2.73000000    88.00000000
   H    121.07000000    -2.40000000    90.15000000
   H    123.60000000    -2.84000000    89.98000000
   H    123.19000000    -4.52000000    89.67000000
   H    124.59000000    -4.55000000    91.70000000
   H    123.86000000    -4.58000000    93.23000000
   N    119.55000000    -4.44000000    90.15000000
   C    118.63000000    -5.55000000    90.23000000
   C    117.14000000    -5.24000000    90.20000000
   O    116.33000000    -6.04000000    89.75000000
   H    119.38000000    -3.64000000    90.74000000
   H    118.83000000    -6.08000000    91.16000000
   H    118.77000000    -6.21000000    89.38000000
   N    116.71000000    -4.06000000    90.67000000
   C    115.37000000    -3.51000000    90.67000000
   C    115.18000000    -2.41000000    89.63000000
   O    116.01000000    -1.54000000    89.37000000
   C    114.90000000    -3.06000000    92.05000000
   C    114.71000000    -4.27000000    92.95000000
   O    115.83000000    -2.18000000    92.65000000
   H    117.46000000    -3.46000000    90.99000000
   H    114.67000000    -4.28000000    90.37000000
   H    113.98000000    -2.48000000    92.09000000
   H    115.43000000    -1.84000000    93.45000000
   H    114.11000000    -5.00000000    92.41000000
   H    115.70000000    -4.63000000    93.25000000
   H    114.12000000    -4.01000000    93.83000000
   N    113.97000000    -2.44000000    89.09000000
   C    113.58000000    -1.44000000    88.11000000
   C    112.07000000    -1.26000000    88.16000000
   O    111.25000000    -2.12000000    88.45000000
   C    113.95000000    -1.91000000    86.71000000
   C    115.43000000    -1.62000000    86.45000000
   C    113.70000000    -3.39000000    86.42000000
   C    115.86000000    -1.78000000    84.99000000
   H    113.26000000    -3.11000000    89.36000000
   H    114.08000000    -0.48000000    88.24000000
   H    113.36000000    -1.33000000    86.00000000
   H    115.99000000    -2.28000000    87.10000000
   H    115.57000000    -0.57000000    86.69000000
   H    114.27000000    -4.05000000    87.06000000
   H    112.65000000    -3.57000000    86.63000000
   H    113.89000000    -3.66000000    85.38000000
   H    115.76000000    -2.84000000    84.73000000
   H    115.35000000    -1.03000000    84.39000000
   H    116.92000000    -1.56000000    84.85000000
   N    111.59000000    -0.05000000    87.85000000
   C    110.22000000     0.40000000    88.05000000
   C    109.88000000     1.54000000    87.10000000
   O    110.67000000     2.42000000    86.79000000
   C    109.93000000     0.91000000    89.46000000
   C    111.13000000     1.64000000    90.03000000
   O    112.08000000     0.94000000    90.46000000
   O    111.02000000     2.88000000    90.18000000
   H    112.25000000     0.69000000    87.66000000
   H    109.63000000    -0.51000000    87.93000000
   H    109.84000000     0.08000000    90.16000000
   H    108.99000000     1.45000000    89.54000000
   N    108.60000000     1.66000000    86.75000000
   C    108.11000000     2.65000000    85.81000000
   C    108.85000000     2.54000000    84.47000000
   O    108.94000000     1.46000000    83.89000000
   C    106.60000000     2.49000000    85.67000000
   C    105.90000000     3.67000000    85.05000000
   C    105.58000000     3.61000000    83.69000000
   C    105.53000000     4.83000000    85.75000000
   C    104.84000000     4.61000000    83.06000000
   C    104.82000000     5.86000000    85.10000000
   C    104.53000000     5.79000000    83.74000000
   H    107.88000000     1.04000000    87.11000000
   H    108.36000000     3.55000000    86.36000000
   H    106.15000000     2.38000000    86.66000000
   H    106.36000000     1.59000000    85.11000000
   H    105.88000000     2.74000000    83.11000000
   H    105.65000000     4.89000000    86.82000000
   H    104.68000000     4.51000000    81.99000000
   H    104.59000000     6.75000000    85.66000000
   H    104.05000000     6.61000000    83.21000000
   N    109.28000000     3.66000000    83.89000000
   C    109.93000000     3.70000000    82.59000000
   C    111.31000000     3.06000000    82.58000000
   O    111.92000000     3.00000000    81.51000000
   C    109.94000000     5.17000000    82.19000000
   C    110.06000000     5.93000000    83.51000000
   C    109.10000000     5.04000000    84.30000000
   H    109.35000000     3.20000000    81.81000000
   H    110.82000000     5.33000000    81.56000000
   H    109.01000000     5.52000000    81.73000000
   H    111.06000000     5.84000000    83.92000000
   H    109.64000000     6.93000000    83.50000000
   H    109.23000000     5.16000000    85.37000000
   H    108.06000000     5.34000000    84.18000000
   N    111.90000000     2.66000000    83.70000000
   C    113.25000000     2.12000000    83.75000000
   C    113.38000000     0.77000000    83.06000000
   O    114.49000000     0.48000000    82.62000000
   C    113.69000000     2.00000000    85.20000000
   C    113.82000000     3.35000000    85.91000000
   C    113.83000000     3.26000000    87.42000000
   O    113.57000000     4.24000000    88.15000000
   O    113.93000000     2.14000000    87.98000000
   H    111.43000000     2.66000000    84.60000000
   H    113.95000000     2.79000000    83.25000000
   H    114.65000000     1.50000000    85.24000000
   H    113.00000000     1.31000000    85.68000000
   H    112.96000000     3.96000000    85.63000000
   H    114.67000000     3.98000000    85.64000000
   N    112.25000000     0.10000000    82.81000000
   C    112.22000000    -1.03000000    81.91000000
   H    112.12800000    -0.67400000    80.88400000
   H    113.14200000    -1.60200000    82.01400000
   H    111.36800000    -1.66500000    82.15200000
   H    111.36000000     0.42000000    83.18000000
  Ca    113.80400000     2.96000000    90.39000000
   O    115.47400000     0.93000000    91.05000000
   H    116.19400000     1.17000000    90.48000000
   H    115.09400000     0.15000000    90.65000000
   O    115.28400000     4.48000000    92.23000000
   H    114.80400000     5.00000000    92.88000000
   H    115.75400000     5.13000000    91.70000000
   O    112.95400000     5.20000000    90.97000000
   H    112.01400000     5.28000000    91.14000000
   H    113.26400000     6.11000000    90.97000000

Ca 1.00



