%chk=loop3.apoCaM-CA-Ng.Init293.run3.water6.chk
%nprocshared=20
%mem=10GB
%nosave
#b3lyp/svp scf=(tight,noincore,xqc) Test 
#IOP(5/87=12) Density=Current Pop=(MK,readradii) iop(6/33=2) iop(6/42=6)

loop3.apoCaM-CA-Ng.Init293.run3.water6 

   0  1 
   C     59.50000000    63.30000000    53.49000000
   C     58.77000000    63.89000000    54.69000000
   O     57.64000000    64.35000000    54.56000000
   H     60.49800000    62.98300000    53.79300000
   H     58.94500000    62.44100000    53.11300000
   H     59.58100000    64.05400000    52.70700000
   N     59.42000000    63.84000000    55.86000000
   C     58.89000000    64.23000000    57.15000000
   C     58.60000000    65.72000000    57.23000000
   O     58.42000000    66.42000000    56.24000000
   C     57.76000000    63.36000000    57.69000000
   C     57.90000000    61.86000000    57.45000000
   O     58.74000000    61.22000000    58.13000000
   O     57.28000000    61.32000000    56.51000000
   H     60.29000000    63.34000000    55.77000000
   H     59.65000000    64.05000000    57.92000000
   H     56.96000000    63.73000000    57.07000000
   H     57.68000000    63.51000000    58.77000000
   N     58.62000000    66.22000000    58.47000000
   C     58.36000000    67.63000000    58.69000000
   C     58.85000000    68.14000000    60.03000000
   O     59.59000000    69.13000000    60.06000000
   C     56.92000000    68.09000000    58.48000000
   C     55.85000000    67.75000000    59.52000000
   C     55.72000000    66.24000000    59.73000000
   C     54.77000000    65.87000000    60.87000000
   N     55.43000000    66.03000000    62.17000000
   H     58.83000000    65.62000000    59.25000000
   H     58.92000000    68.28000000    58.01000000
   H     56.54000000    67.68000000    57.54000000
   H     56.98000000    69.16000000    58.33000000
   H     54.90000000    68.12000000    59.15000000
   H     56.12000000    68.30000000    60.42000000
   H     56.68000000    65.77000000    59.96000000
   H     55.46000000    65.81000000    58.77000000
   H     54.63000000    64.84000000    60.55000000
   H     53.86000000    66.46000000    60.78000000
   H     54.77000000    65.68000000    62.86000000
   H     56.29000000    65.50000000    62.20000000
   H     55.61000000    67.02000000    62.24000000
   N     58.56000000    67.41000000    61.11000000
   C     59.17000000    67.43000000    62.43000000
   C     58.80000000    66.17000000    63.19000000
   O     57.94000000    65.38000000    62.78000000
   C     58.77000000    68.68000000    63.23000000
   C     57.33000000    69.14000000    63.25000000
   O     56.51000000    68.20000000    63.20000000
   O     56.96000000    70.34000000    63.25000000
   H     58.08000000    66.54000000    60.98000000
   H     60.25000000    67.54000000    62.33000000
   H     59.36000000    69.53000000    62.91000000
   H     59.19000000    68.56000000    64.23000000
   N     59.39000000    65.93000000    64.37000000
   C     59.07000000    64.86000000    65.29000000
   C     57.78000000    65.09000000    66.06000000
   O     57.34000000    66.22000000    66.25000000
   H     59.97000000    66.67000000    64.74000000
   H     59.88000000    64.56000000    65.96000000
   H     59.07000000    63.94000000    64.70000000
   N     57.30000000    64.05000000    66.74000000
   C     56.24000000    64.09000000    67.74000000
   C     56.53000000    63.14000000    68.89000000
   O     55.71000000    62.34000000    69.32000000
   C     54.93000000    63.85000000    67.01000000
   C     54.45000000    64.94000000    66.06000000
   N     54.12000000    66.12000000    66.58000000
   O     54.42000000    64.77000000    64.84000000
   H     57.74000000    63.15000000    66.64000000
   H     56.29000000    65.13000000    68.07000000
   H     54.07000000    63.87000000    67.68000000
   H     54.95000000    62.91000000    66.46000000
   H     54.36000000    66.23000000    67.56000000
   H     53.91000000    66.94000000    66.03000000
   N     57.76000000    63.12000000    69.42000000
   C     58.20000000    62.23000000    70.47000000
   C     57.93000000    60.77000000    70.12000000
   O     58.45000000    60.40000000    69.07000000
   H     58.42000000    63.80000000    69.06000000
   H     57.72000000    62.46000000    71.42000000
   H     59.28000000    62.32000000    70.57000000
   N     57.07000000    60.02000000    70.80000000
   C     56.59000000    58.67000000    70.54000000
   C     55.53000000    58.56000000    69.46000000
   O     54.61000000    57.76000000    69.60000000
   C     57.74000000    57.70000000    70.31000000
   C     57.40000000    56.25000000    70.59000000
   C     57.07000000    55.37000000    69.55000000
   C     57.54000000    55.81000000    71.91000000
   C     56.99000000    53.99000000    69.77000000
   C     57.21000000    54.47000000    72.15000000
   C     56.98000000    53.54000000    71.11000000
   O     56.80000000    52.22000000    71.37000000
   H     56.77000000    60.49000000    71.64000000
   H     56.09000000    58.46000000    71.48000000
   H     58.44000000    58.09000000    71.05000000
   H     58.14000000    57.88000000    69.32000000
   H     57.19000000    55.68000000    68.53000000
   H     57.70000000    56.43000000    72.77000000
   H     56.99000000    53.22000000    69.02000000
   H     57.29000000    54.13000000    73.17000000
   H     56.59000000    52.08000000    72.30000000
   N     55.48000000    59.49000000    68.50000000
   C     54.39000000    59.83000000    67.61000000
   C     53.09000000    60.25000000    68.28000000
   O     52.64000000    61.39000000    68.16000000
   C     54.22000000    58.83000000    66.47000000
   C     55.51000000    58.44000000    65.76000000
   C     53.23000000    59.42000000    65.47000000
   C     56.38000000    59.57000000    65.20000000
   H     56.30000000    60.04000000    68.28000000
   H     54.69000000    60.72000000    67.06000000
   H     53.86000000    57.86000000    66.83000000
   H     55.24000000    57.77000000    64.94000000
   H     56.13000000    57.83000000    66.42000000
   H     53.40000000    60.45000000    65.18000000
   H     53.24000000    58.93000000    64.49000000
   H     52.21000000    59.26000000    65.82000000
   H     56.81000000    60.16000000    66.01000000
   H     57.16000000    59.05000000    64.66000000
   H     55.88000000    60.19000000    64.45000000
   N     52.45000000    59.47000000    69.16000000
   C     51.34000000    59.91000000    69.97000000
   C     50.10000000    60.33000000    69.19000000
   O     49.29000000    61.16000000    69.58000000
   C     51.02000000    58.83000000    71.00000000
   O     50.57000000    57.69000000    70.30000000
   H     52.94000000    58.61000000    69.36000000
   H     51.71000000    60.83000000    70.43000000
   H     50.32000000    59.24000000    71.73000000
   H     51.96000000    58.58000000    71.49000000
   H     50.26000000    57.11000000    70.99000000
   N     49.99000000    59.63000000    68.06000000
   C     48.91000000    59.73000000    67.09000000
   C     48.77000000    61.09000000    66.43000000
   O     47.70000000    61.43000000    65.93000000
   C     47.59000000    59.41000000    67.78000000
   H     50.60000000    58.84000000    67.89000000
   H     48.99000000    58.91000000    66.37000000
   H     47.68000000    58.42000000    68.24000000
   H     47.34000000    60.09000000    68.60000000
   H     46.75000000    59.29000000    67.10000000
   N     49.87000000    61.85000000    66.44000000
   C     49.88000000    63.24000000    66.03000000
   C     50.54000000    63.44000000    64.68000000
   O     51.55000000    62.78000000    64.42000000
   C     50.48000000    64.15000000    67.11000000
   H     50.73000000    61.52000000    66.84000000
   H     48.84000000    63.54000000    65.92000000
   H     51.46000000    63.77000000    67.39000000
   H     50.57000000    65.11000000    66.61000000
   H     49.85000000    64.22000000    68.00000000
   N     50.02000000    64.34000000    63.84000000
   C     50.45000000    64.70000000    62.51000000
   C     50.46000000    63.47000000    61.61000000
   O     51.53000000    63.14000000    61.09000000
   C     51.75000000    65.50000000    62.56000000
   C     51.46000000    66.80000000    63.30000000
   C     52.68000000    67.64000000    63.65000000
   O     53.40000000    68.11000000    62.74000000
   O     52.94000000    68.01000000    64.81000000
   H     49.26000000    64.86000000    64.27000000
   H     49.64000000    65.35000000    62.17000000
   H     52.21000000    65.65000000    61.58000000
   H     52.51000000    64.88000000    63.04000000
   H     50.92000000    66.65000000    64.24000000
   H     50.78000000    67.50000000    62.81000000
   N     49.33000000    62.81000000    61.38000000
   C     49.19000000    61.51000000    60.75000000
   H     48.39700000    61.55200000    60.00300000
   H     50.12800000    61.23600000    60.26800000
   H     48.93800000    60.76500000    61.50500000
   H     48.51000000    63.19000000    61.83000000
  Ca     54.57000000    70.01000000    64.25000000
   O     52.13000000    71.21000000    63.98000000
   H     51.23000000    70.92000000    63.83000000
   H     52.06000000    72.16000000    64.09000000
   O     53.31000000    70.95000000    66.71000000
   H     53.64000000    70.62000000    67.55000000
   H     52.80000000    71.72000000    66.94000000
   O     54.67000000    72.87000000    63.80000000
   H     54.08000000    73.56000000    63.50000000
   H     55.53000000    73.29000000    63.82000000
   O     55.62000000    68.74000000    66.31000000
   H     55.97000000    67.87000000    66.11000000
   H     55.29000000    68.66000000    67.20000000
   O     54.14000000    70.47000000    61.51000000
   H     53.62000000    71.13000000    61.07000000
   H     54.95000000    70.41000000    61.01000000
   O     56.22000000    71.63000000    65.84000000
   H     56.89000000    71.47000000    66.50000000
   H     56.00000000    72.56000000    65.94000000

Ca 1.00



