%chk=loop4.apoCaM-CA-Ng.Init293.run90.water3.chk
%nprocshared=20
%mem=10GB
%nosave
#b3lyp/svp scf=(tight,noincore,xqc) Test 
#IOP(5/87=12) Density=Current Pop=(MK,readradii) iop(6/33=2) iop(6/42=6)

loop4.apoCaM-CA-Ng.Init293.run90.water3 

   -3  1 
   C     67.14000000    65.89000000    32.52000000
   C     66.96000000    64.57000000    33.26000000
   O     66.18000000    63.68000000    32.92000000
   H     68.15500000    65.95100000    32.12800000
   H     66.42900000    65.94500000    31.69500000
   H     66.96600000    66.71900000    33.20600000
   N     67.67000000    64.45000000    34.38000000
   C     67.80000000    63.48000000    35.44000000
   C     68.02000000    62.03000000    35.01000000
   O     68.26000000    61.15000000    35.83000000
   C     66.69000000    63.60000000    36.48000000
   C     65.24000000    63.76000000    36.03000000
   O     64.90000000    62.90000000    35.19000000
   O     64.50000000    64.62000000    36.56000000
   H     68.22000000    65.26000000    34.63000000
   H     68.75000000    63.72000000    35.92000000
   H     66.98000000    64.43000000    37.11000000
   H     66.69000000    62.74000000    37.15000000
   N     67.97000000    61.85000000    33.69000000
   C     67.86000000    60.56000000    33.05000000
   C     66.45000000    60.00000000    33.20000000
   O     65.51000000    60.78000000    33.07000000
   C     68.22000000    60.60000000    31.56000000
   C     69.71000000    60.47000000    31.24000000
   C     67.64000000    61.75000000    30.75000000
   C     70.65000000    61.62000000    31.58000000
   H     67.66000000    62.60000000    33.09000000
   H     68.50000000    59.86000000    33.58000000
   H     67.85000000    59.67000000    31.13000000
   H     69.82000000    60.32000000    30.16000000
   H     70.02000000    59.54000000    31.72000000
   H     68.01000000    61.69000000    29.73000000
   H     66.58000000    61.50000000    30.86000000
   H     67.86000000    62.73000000    31.17000000
   H     71.61000000    61.11000000    31.69000000
   H     70.83000000    62.35000000    30.79000000
   H     70.52000000    61.97000000    32.60000000
   N     66.36000000    58.71000000    33.53000000
   C     65.13000000    57.96000000    33.66000000
   C     64.43000000    58.14000000    35.00000000
   O     65.04000000    58.41000000    36.02000000
   C     65.34000000    56.48000000    33.36000000
   C     66.52000000    55.94000000    34.16000000
   O     66.35000000    55.18000000    35.14000000
   O     67.68000000    56.36000000    33.95000000
   H     67.19000000    58.18000000    33.74000000
   H     64.48000000    58.33000000    32.87000000
   H     65.59000000    56.38000000    32.30000000
   H     64.43000000    55.92000000    33.55000000
   N     63.09000000    58.12000000    35.06000000
   C     62.00000000    58.07000000    34.10000000
   C     61.97000000    59.18000000    33.07000000
   O     62.66000000    60.19000000    33.22000000
   H     62.72000000    58.16000000    36.00000000
   H     61.09000000    58.16000000    34.70000000
   H     62.12000000    57.04000000    33.76000000
   N     61.30000000    59.00000000    31.93000000
   C     60.58000000    57.81000000    31.52000000
   C     60.62000000    57.41000000    30.05000000
   O     59.66000000    57.72000000    29.35000000
   C     59.19000000    57.99000000    32.10000000
   C     58.34000000    56.77000000    31.78000000
   O     57.27000000    56.97000000    31.18000000
   O     58.53000000    55.57000000    32.09000000
   H     61.32000000    59.78000000    31.28000000
   H     60.82000000    56.90000000    32.07000000
   H     58.73000000    58.87000000    31.63000000
   H     59.22000000    58.27000000    33.15000000
   N     61.76000000    56.91000000    29.56000000
   C     62.93000000    56.51000000    30.31000000
   C     63.93000000    55.65000000    29.55000000
   O     64.40000000    54.65000000    30.09000000
   H     61.77000000    56.91000000    28.55000000
   H     62.61000000    55.99000000    31.22000000
   H     63.54000000    57.38000000    30.54000000
   N     64.17000000    55.94000000    28.27000000
   C     64.77000000    55.09000000    27.27000000
   C     65.89000000    55.85000000    26.57000000
   O     66.51000000    55.29000000    25.67000000
   C     63.74000000    54.74000000    26.20000000
   C     62.29000000    54.70000000    26.70000000
   C     61.28000000    54.38000000    25.61000000
   N     60.01000000    54.28000000    25.98000000
   O     61.62000000    54.18000000    24.44000000
   H     63.59000000    56.73000000    28.00000000
   H     65.20000000    54.15000000    27.62000000
   H     63.99000000    53.74000000    25.84000000
   H     63.75000000    55.52000000    25.45000000
   H     62.04000000    55.67000000    27.12000000
   H     62.16000000    53.94000000    27.47000000
   H     59.74000000    54.32000000    26.96000000
   H     59.40000000    54.00000000    25.23000000
   N     66.17000000    57.12000000    26.86000000
   C     67.24000000    57.88000000    26.25000000
   C     66.79000000    59.33000000    26.13000000
   O     66.00000000    59.82000000    26.94000000
   C     68.59000000    57.71000000    26.94000000
   C     69.27000000    56.35000000    26.87000000
   C     68.54000000    58.04000000    28.43000000
   H     65.78000000    57.47000000    27.72000000
   H     67.34000000    57.60000000    25.20000000
   H     69.30000000    58.44000000    26.55000000
   H     70.33000000    56.54000000    27.06000000
   H     68.83000000    55.75000000    27.67000000
   H     69.14000000    55.85000000    25.91000000
   H     69.45000000    57.77000000    28.97000000
   H     68.46000000    59.12000000    28.51000000
   H     67.71000000    57.57000000    28.96000000
   N     67.31000000    60.09000000    25.17000000
   C     67.06000000    61.52000000    25.03000000
   C     65.78000000    61.68000000    24.23000000
   O     65.11000000    62.71000000    24.24000000
   C     68.20000000    62.17000000    24.25000000
   C     68.09000000    63.68000000    24.41000000
   N     67.58000000    64.40000000    23.41000000
   O     68.42000000    64.14000000    25.51000000
   H     67.98000000    59.71000000    24.53000000
   H     66.89000000    62.07000000    25.95000000
   H     68.24000000    61.84000000    23.21000000
   H     69.16000000    61.88000000    24.67000000
   H     67.43000000    63.95000000    22.52000000
   H     67.55000000    65.40000000    23.56000000
   N     65.27000000    60.63000000    23.57000000
   C     63.94000000    60.64000000    22.99000000
   C     62.86000000    60.95000000    24.01000000
   O     62.90000000    60.45000000    25.13000000
   C     63.75000000    59.29000000    22.32000000
   C     64.84000000    58.93000000    21.34000000
   C     65.71000000    57.86000000    21.58000000
   C     64.96000000    59.72000000    20.19000000
   C     66.67000000    57.54000000    20.61000000
   C     65.95000000    59.44000000    19.23000000
   C     66.79000000    58.34000000    19.45000000
   O     67.79000000    58.12000000    18.54000000
   H     65.87000000    59.83000000    23.43000000
   H     63.97000000    61.50000000    22.32000000
   H     62.78000000    59.23000000    21.83000000
   H     63.67000000    58.51000000    23.08000000
   H     65.67000000    57.25000000    22.47000000
   H     64.42000000    60.62000000    19.93000000
   H     67.32000000    56.72000000    20.83000000
   H     66.05000000    60.04000000    18.34000000
   H     68.30000000    57.33000000    18.71000000
   N     62.01000000    61.91000000    23.63000000
   C     61.02000000    62.59000000    24.44000000
   C     61.53000000    63.34000000    25.67000000
   O     60.74000000    63.73000000    26.52000000
   C     59.83000000    61.69000000    24.76000000
   C     58.44000000    62.28000000    24.98000000
   C     57.37000000    61.23000000    24.74000000
   O     56.87000000    60.69000000    25.75000000
   O     56.79000000    61.00000000    23.66000000
   H     62.03000000    62.22000000    22.67000000
   H     60.60000000    63.43000000    23.88000000
   H     60.00000000    60.97000000    25.56000000
   H     59.80000000    60.98000000    23.93000000
   H     58.23000000    63.25000000    24.53000000
   H     58.47000000    62.60000000    26.03000000
   N     62.84000000    63.46000000    25.88000000
   C     63.31000000    64.29000000    26.97000000
   C     63.56000000    65.73000000    26.55000000
   O     63.55000000    66.60000000    27.42000000
   C     64.61000000    63.72000000    27.54000000
   C     64.57000000    62.39000000    28.29000000
   C     64.27000000    62.47000000    29.78000000
   O     63.89000000    61.46000000    30.41000000
   O     64.35000000    63.56000000    30.39000000
   H     63.47000000    63.04000000    25.21000000
   H     62.60000000    64.32000000    27.80000000
   H     65.14000000    64.51000000    28.07000000
   H     65.22000000    63.52000000    26.66000000
   H     65.58000000    61.99000000    28.28000000
   H     63.89000000    61.72000000    27.76000000
   N     63.74000000    65.98000000    25.25000000
   C     63.66000000    67.32000000    24.71000000
   H     62.97400000    67.91400000    25.31300000
   H     64.64800000    67.77900000    24.72800000
   H     63.29700000    67.27700000    23.68300000
   H     63.69000000    65.25000000    24.55000000
  Ca     63.78000000    62.57000000    32.78000000
   O     63.39000000    65.08000000    33.41000000
   H     62.63000000    65.57000000    33.10000000
   H     63.82000000    65.66000000    34.03000000
   O     61.32000000    63.01000000    31.48000000
   H     61.02000000    62.84000000    30.58000000
   H     60.53000000    63.23000000    31.96000000
   O     61.71000000    62.74000000    34.59000000
   H     61.60000000    63.01000000    35.50000000
   H     60.96000000    63.14000000    34.14000000

Ca 1.00



