%chk=loop1.apoCaM-CA-Ng.Init295.run25.water6.chk
%nprocshared=20
%mem=10GB
%nosave
#b3lyp/svp scf=(tight,noincore,xqc) Test 
#IOP(5/87=12) Density=Current Pop=(MK,readradii) iop(6/33=2) iop(6/42=6)

loop1.apoCaM-CA-Ng.Init295.run25.water6 

   0  1 
   C     73.27000000    66.83000000    44.15000000
   C     72.19000000    66.49000000    43.13000000
   O     71.12000000    65.99000000    43.48000000
   H     74.11700000    67.29000000    43.64100000
   H     72.86800000    67.52500000    44.88700000
   H     73.59800000    65.91900000    44.65000000
   N     72.48000000    66.91000000    41.90000000
   C     71.48000000    66.86000000    40.85000000
   C     70.38000000    67.88000000    41.10000000
   O     69.20000000    67.57000000    40.96000000
   C     71.00000000    65.47000000    40.44000000
   C     70.69000000    65.29000000    38.96000000
   O     70.84000000    64.14000000    38.50000000
   O     70.35000000    66.31000000    38.33000000
   H     73.38000000    67.35000000    41.76000000
   H     71.97000000    67.27000000    39.97000000
   H     70.15000000    65.24000000    41.09000000
   H     71.81000000    64.77000000    40.64000000
   N     70.74000000    69.09000000    41.54000000
   C     69.88000000    70.21000000    41.85000000
   C     69.96000000    71.40000000    40.91000000
   O     69.09000000    72.27000000    40.93000000
   C     70.09000000    70.52000000    43.33000000
   C     69.59000000    69.44000000    44.28000000
   C     69.70000000    69.93000000    45.72000000
   C     68.92000000    69.02000000    46.67000000
   N     69.33000000    69.25000000    48.06000000
   H     71.71000000    69.26000000    41.79000000
   H     68.83000000    69.93000000    41.73000000
   H     69.56000000    71.42000000    43.65000000
   H     71.15000000    70.68000000    43.54000000
   H     70.10000000    68.51000000    44.02000000
   H     68.51000000    69.30000000    44.15000000
   H     69.22000000    70.91000000    45.78000000
   H     70.73000000    69.99000000    46.07000000
   H     69.17000000    68.00000000    46.35000000
   H     67.84000000    69.12000000    46.61000000
   H     70.33000000    69.10000000    48.15000000
   H     69.07000000    70.20000000    48.31000000
   H     68.88000000    68.56000000    48.64000000
   N     71.10000000    71.57000000    40.23000000
   C     71.40000000    72.87000000    39.66000000
   C     72.01000000    72.84000000    38.27000000
   O     72.18000000    73.88000000    37.64000000
   C     72.42000000    73.59000000    40.53000000
   C     72.25000000    75.10000000    40.65000000
   O     71.58000000    75.73000000    39.80000000
   O     72.91000000    75.65000000    41.56000000
   H     71.86000000    70.92000000    40.34000000
   H     70.55000000    73.57000000    39.67000000
   H     73.47000000    73.42000000    40.28000000
   H     72.28000000    73.23000000    41.55000000
   N     72.41000000    71.70000000    37.69000000
   C     72.49000000    71.56000000    36.25000000
   C     73.82000000    72.06000000    35.70000000
   O     74.78000000    71.30000000    35.76000000
   H     72.44000000    70.82000000    38.17000000
   H     71.69000000    72.06000000    35.69000000
   H     72.40000000    70.53000000    35.90000000
   N     73.91000000    73.34000000    35.34000000
   C     75.14000000    74.02000000    34.98000000
   C     75.90000000    74.56000000    36.18000000
   O     76.80000000    75.36000000    35.94000000
   C     74.90000000    75.10000000    33.93000000
   C     73.93000000    76.21000000    34.30000000
   O     73.69000000    77.11000000    33.46000000
   O     73.36000000    76.14000000    35.41000000
   H     73.04000000    73.86000000    35.41000000
   H     75.78000000    73.36000000    34.40000000
   H     74.35000000    74.57000000    33.15000000
   H     75.86000000    75.47000000    33.58000000
   N     75.55000000    74.33000000    37.45000000
   C     76.23000000    74.84000000    38.62000000
   C     77.59000000    74.28000000    39.01000000
   O     77.69000000    73.05000000    38.92000000
   H     74.69000000    73.84000000    37.65000000
   H     75.62000000    74.71000000    39.51000000
   H     76.33000000    75.93000000    38.59000000
   N     78.52000000    75.10000000    39.50000000
   C     79.90000000    74.68000000    39.72000000
   C     80.81000000    75.28000000    38.66000000
   O     80.50000000    76.34000000    38.12000000
   C     80.37000000    75.11000000    41.10000000
   C     79.55000000    74.53000000    42.26000000
   O     81.68000000    74.65000000    41.30000000
   H     78.32000000    76.09000000    39.48000000
   H     79.87000000    73.61000000    39.54000000
   H     80.34000000    76.20000000    41.16000000
   H     82.03000000    74.90000000    42.15000000
   H     80.00000000    74.72000000    43.23000000
   H     78.52000000    74.88000000    42.33000000
   H     79.50000000    73.45000000    42.19000000
   N     81.79000000    74.49000000    38.22000000
   C     82.63000000    74.81000000    37.08000000
   C     82.15000000    74.07000000    35.84000000
   O     82.62000000    74.41000000    34.75000000
   C     84.10000000    74.71000000    37.48000000
   C     84.47000000    73.30000000    37.91000000
   C     84.37000000    75.73000000    38.58000000
   C     85.97000000    73.09000000    38.11000000
   H     81.92000000    73.59000000    38.65000000
   H     82.50000000    75.86000000    36.83000000
   H     84.69000000    75.02000000    36.61000000
   H     84.17000000    72.50000000    37.23000000
   H     84.01000000    73.09000000    38.87000000
   H     83.77000000    76.60000000    38.34000000
   H     83.93000000    75.34000000    39.50000000
   H     85.43000000    75.95000000    38.69000000
   H     86.48000000    73.29000000    37.17000000
   H     86.44000000    73.72000000    38.87000000
   H     86.21000000    72.06000000    38.37000000
   N     81.27000000    73.08000000    35.98000000
   C     80.91000000    72.05000000    35.03000000
   C     80.20000000    70.84000000    35.64000000
   O     79.60000000    71.00000000    36.69000000
   C     80.13000000    72.40000000    33.77000000
   C     78.87000000    73.23000000    34.01000000
   O     81.03000000    73.00000000    32.86000000
   H     80.86000000    72.97000000    36.90000000
   H     81.83000000    71.65000000    34.59000000
   H     79.74000000    71.49000000    33.33000000
   H     81.60000000    73.51000000    33.43000000
   H     78.30000000    73.27000000    33.08000000
   H     78.27000000    72.78000000    34.80000000
   H     79.10000000    74.28000000    34.18000000
   N     80.37000000    69.70000000    34.96000000
   C     79.80000000    68.43000000    35.37000000
   C     80.70000000    67.64000000    36.31000000
   O     80.20000000    67.20000000    37.34000000
   C     79.21000000    67.65000000    34.20000000
   C     78.69000000    66.29000000    34.66000000
   O     80.12000000    67.45000000    33.15000000
   H     80.86000000    69.66000000    34.08000000
   H     78.95000000    68.63000000    36.03000000
   H     78.35000000    68.19000000    33.80000000
   H     80.00000000    68.10000000    32.45000000
   H     77.86000000    66.34000000    35.36000000
   H     78.29000000    65.80000000    33.77000000
   H     79.44000000    65.61000000    35.06000000
   N     82.02000000    67.55000000    36.16000000
   C     82.98000000    67.10000000    37.16000000
   C     84.05000000    68.16000000    37.37000000
   O     83.96000000    69.27000000    36.86000000
   C     83.57000000    65.77000000    36.72000000
   C     84.16000000    65.87000000    35.32000000
   C     85.56000000    65.32000000    35.09000000
   C     86.08000000    65.61000000    33.69000000
   N     87.49000000    65.22000000    33.55000000
   H     82.47000000    67.89000000    35.33000000
   H     82.42000000    67.01000000    38.09000000
   H     82.74000000    65.07000000    36.79000000
   H     84.26000000    65.41000000    37.49000000
   H     84.20000000    66.93000000    35.05000000
   H     83.47000000    65.36000000    34.64000000
   H     85.60000000    64.23000000    35.15000000
   H     86.25000000    65.79000000    35.79000000
   H     85.96000000    66.68000000    33.54000000
   H     85.48000000    65.09000000    32.94000000
   H     87.80000000    65.32000000    32.59000000
   H     88.08000000    65.84000000    34.09000000
   H     87.60000000    64.26000000    33.87000000
   N     85.16000000    67.78000000    38.01000000
   C     86.26000000    68.66000000    38.36000000
   C     86.71000000    68.54000000    39.81000000
   O     87.90000000    68.57000000    40.11000000
   C     87.43000000    68.47000000    37.40000000
   C     87.18000000    68.75000000    35.92000000
   C     88.43000000    68.73000000    35.05000000
   O     88.76000000    67.68000000    34.46000000
   O     88.98000000    69.83000000    34.82000000
   H     85.13000000    66.85000000    38.42000000
   H     85.95000000    69.70000000    38.30000000
   H     87.97000000    67.54000000    37.53000000
   H     88.14000000    69.27000000    37.65000000
   H     86.64000000    69.69000000    35.81000000
   H     86.52000000    67.98000000    35.52000000
   N     85.83000000    68.42000000    40.81000000
   C     84.41000000    68.73000000    40.83000000
   H     83.86300000    67.89700000    41.27300000
   H     84.24200000    69.63000000    41.42200000
   H     84.05900000    68.89400000    39.81100000
   H     86.15000000    68.18000000    41.74000000
  Ca     71.31000000    76.37000000    37.20000000
   O     69.20000000    77.25000000    35.86000000
   H     68.48000000    76.71000000    35.55000000
   H     69.14000000    78.05000000    35.34000000
   O     73.66000000    77.05000000    38.25000000
   H     73.61000000    77.49000000    39.09000000
   H     74.35000000    77.51000000    37.77000000
   O     68.98000000    75.12000000    38.22000000
   H     68.35000000    74.61000000    37.72000000
   H     68.44000000    75.60000000    38.85000000
   O     70.36000000    74.72000000    35.29000000
   H     69.76000000    74.01000000    35.52000000
   H     70.69000000    74.48000000    34.42000000
   O     71.47000000    78.79000000    36.03000000
   H     72.29000000    79.21000000    35.76000000
   H     70.87000000    79.51000000    36.19000000
   O     70.32000000    78.44000000    38.72000000
   H     70.98000000    78.92000000    39.22000000
   H     69.49000000    78.80000000    39.02000000

Ca 1.00



