%chk=loop4.apoCaM-CA-Ng.Init293.run58.water3.chk
%nprocshared=20
%mem=10GB
%nosave
#b3lyp/svp scf=(tight,noincore,xqc) Test 
#IOP(5/87=12) Density=Current Pop=(MK,readradii) iop(6/33=2) iop(6/42=6)

loop4.apoCaM-CA-Ng.Init293.run58.water3 

   -3  1 
   C     48.44000000    56.73000000    78.27000000
   C     47.16000000    55.89000000    78.27000000
   O     46.36000000    55.90000000    79.21000000
   H     49.23200000    56.18500000    77.75700000
   H     48.25600000    57.67300000    77.75500000
   H     48.74400000    56.93000000    79.29700000
   N     46.92000000    55.15000000    77.19000000
   C     45.82000000    54.24000000    76.93000000
   C     44.40000000    54.74000000    77.14000000
   O     43.44000000    54.15000000    76.65000000
   C     46.02000000    52.79000000    77.35000000
   C     46.13000000    52.59000000    78.85000000
   O     45.31000000    53.19000000    79.57000000
   O     47.03000000    51.81000000    79.23000000
   H     47.63000000    55.10000000    76.48000000
   H     45.81000000    54.10000000    75.84000000
   H     46.96000000    52.49000000    76.89000000
   H     45.24000000    52.11000000    77.03000000
   N     44.12000000    55.98000000    77.56000000
   C     42.84000000    56.55000000    77.92000000
   C     42.35000000    55.84000000    79.17000000
   O     43.10000000    55.67000000    80.13000000
   C     42.78000000    58.06000000    78.13000000
   C     42.76000000    58.68000000    76.74000000
   C     43.86000000    58.73000000    78.97000000
   C     42.57000000    60.19000000    76.59000000
   H     44.87000000    56.45000000    78.05000000
   H     42.19000000    56.32000000    77.08000000
   H     41.82000000    58.29000000    78.59000000
   H     41.87000000    58.32000000    76.21000000
   H     43.69000000    58.31000000    76.33000000
   H     43.79000000    59.82000000    79.09000000
   H     43.86000000    58.25000000    79.95000000
   H     44.80000000    58.51000000    78.47000000
   H     42.55000000    60.42000000    75.52000000
   H     41.66000000    60.53000000    77.08000000
   H     43.37000000    60.75000000    77.07000000
   N     41.10000000    55.35000000    79.15000000
   C     40.52000000    54.51000000    80.18000000
   C     41.25000000    53.18000000    80.25000000
   O     41.55000000    52.54000000    79.24000000
   C     39.01000000    54.45000000    80.01000000
   C     38.51000000    54.01000000    78.64000000
   O     37.56000000    53.20000000    78.62000000
   O     39.02000000    54.48000000    77.60000000
   H     40.49000000    55.70000000    78.43000000
   H     40.76000000    55.05000000    81.10000000
   H     38.77000000    55.50000000    80.15000000
   H     38.60000000    53.76000000    80.76000000
   N     41.55000000    52.65000000    81.43000000
   C     41.08000000    53.19000000    82.70000000
   C     42.03000000    54.16000000    83.39000000
   O     43.08000000    54.57000000    82.90000000
   H     41.86000000    51.69000000    81.46000000
   H     41.08000000    52.28000000    83.30000000
   H     40.13000000    53.69000000    82.57000000
   N     41.61000000    54.64000000    84.56000000
   C     40.40000000    54.27000000    85.27000000
   C     39.01000000    54.52000000    84.70000000
   O     38.17000000    53.62000000    84.78000000
   C     40.43000000    54.92000000    86.65000000
   C     39.24000000    54.64000000    87.56000000
   O     39.27000000    53.70000000    88.39000000
   O     38.30000000    55.45000000    87.43000000
   H     42.25000000    55.26000000    85.04000000
   H     40.48000000    53.19000000    85.35000000
   H     40.65000000    55.99000000    86.60000000
   H     41.27000000    54.44000000    87.14000000
   N     38.73000000    55.64000000    84.03000000
   C     39.37000000    56.93000000    83.94000000
   C     38.38000000    58.08000000    83.82000000
   O     37.21000000    57.81000000    83.54000000
   H     37.74000000    55.65000000    83.83000000
   H     40.00000000    56.92000000    83.05000000
   H     39.93000000    57.18000000    84.85000000
   N     38.78000000    59.34000000    83.93000000
   C     37.91000000    60.50000000    83.82000000
   C     38.63000000    61.72000000    83.26000000
   O     38.05000000    62.80000000    83.34000000
   C     37.26000000    60.79000000    85.16000000
   C     38.14000000    61.13000000    86.36000000
   C     38.68000000    62.55000000    86.37000000
   N     39.88000000    62.79000000    85.83000000
   O     38.06000000    63.41000000    87.00000000
   H     39.77000000    59.49000000    84.04000000
   H     37.16000000    60.35000000    83.04000000
   H     36.79000000    59.87000000    85.50000000
   H     36.52000000    61.60000000    85.26000000
   H     38.96000000    60.42000000    86.34000000
   H     37.61000000    60.94000000    87.30000000
   H     40.39000000    61.97000000    85.53000000
   H     40.19000000    63.75000000    85.86000000
   N     39.72000000    61.53000000    82.51000000
   C     40.46000000    62.67000000    82.00000000
   C     41.92000000    62.58000000    82.43000000
   O     42.53000000    61.52000000    82.46000000
   C     40.38000000    62.98000000    80.51000000
   C     38.91000000    63.12000000    80.11000000
   C     41.04000000    61.82000000    79.78000000
   H     40.03000000    60.58000000    82.38000000
   H     40.07000000    63.60000000    82.43000000
   H     40.96000000    63.87000000    80.29000000
   H     38.82000000    63.13000000    79.03000000
   H     38.20000000    62.42000000    80.55000000
   H     38.68000000    64.10000000    80.51000000
   H     42.13000000    61.83000000    79.88000000
   H     40.74000000    60.81000000    80.04000000
   H     40.92000000    62.06000000    78.72000000
   N     42.57000000    63.68000000    82.81000000
   C     44.01000000    63.83000000    82.91000000
   C     44.67000000    63.37000000    84.20000000
   O     45.89000000    63.27000000    84.35000000
   C     44.32000000    65.31000000    82.67000000
   C     45.82000000    65.54000000    82.53000000
   N     46.48000000    66.31000000    83.39000000
   O     46.34000000    65.10000000    81.51000000
   H     42.06000000    64.53000000    83.02000000
   H     44.53000000    63.29000000    82.12000000
   H     43.90000000    65.89000000    83.49000000
   H     43.82000000    65.62000000    81.75000000
   H     45.98000000    66.52000000    84.25000000
   H     47.45000000    66.51000000    83.19000000
   N     43.87000000    63.17000000    85.25000000
   C     44.43000000    62.65000000    86.48000000
   C     44.74000000    61.16000000    86.36000000
   O     44.07000000    60.39000000    85.67000000
   C     43.54000000    62.98000000    87.68000000
   C     43.92000000    62.50000000    89.06000000
   C     44.47000000    63.37000000    90.00000000
   C     43.57000000    61.19000000    89.42000000
   C     44.70000000    62.99000000    91.33000000
   C     43.75000000    60.84000000    90.77000000
   C     44.14000000    61.77000000    91.75000000
   O     44.18000000    61.27000000    93.03000000
   H     42.87000000    63.20000000    85.16000000
   H     45.34000000    63.21000000    86.66000000
   H     42.51000000    62.71000000    87.46000000
   H     43.56000000    64.07000000    87.68000000
   H     44.72000000    64.32000000    89.56000000
   H     43.25000000    60.46000000    88.70000000
   H     45.11000000    63.67000000    92.06000000
   H     43.38000000    59.85000000    91.01000000
   H     44.53000000    61.94000000    93.63000000
   N     45.79000000    60.77000000    87.08000000
   C     46.60000000    59.57000000    87.00000000
   C     47.19000000    59.26000000    85.63000000
   O     47.86000000    58.24000000    85.47000000
   C     45.92000000    58.37000000    87.65000000
   C     46.58000000    57.90000000    88.94000000
   C     46.48000000    56.40000000    89.22000000
   O     45.52000000    55.69000000    88.84000000
   O     47.34000000    55.99000000    90.02000000
   H     46.06000000    61.38000000    87.84000000
   H     47.54000000    59.74000000    87.53000000
   H     45.86000000    57.52000000    86.97000000
   H     44.92000000    58.74000000    87.90000000
   H     46.15000000    58.40000000    89.80000000
   H     47.63000000    58.17000000    88.88000000
   N     46.99000000    60.15000000    84.66000000
   C     47.61000000    60.15000000    83.34000000
   C     48.86000000    61.01000000    83.37000000
   O     49.91000000    60.59000000    82.89000000
   C     46.59000000    60.49000000    82.26000000
   C     45.36000000    59.59000000    82.29000000
   C     45.46000000    58.08000000    82.15000000
   O     44.44000000    57.41000000    82.42000000
   O     46.51000000    57.43000000    81.93000000
   H     46.25000000    60.82000000    84.80000000
   H     48.01000000    59.17000000    83.07000000
   H     47.22000000    60.30000000    81.39000000
   H     46.21000000    61.51000000    82.33000000
   H     44.64000000    59.94000000    81.55000000
   H     44.78000000    59.84000000    83.18000000
   N     48.85000000    62.17000000    84.03000000
   C     49.99000000    62.71000000    84.74000000
   H     50.79500000    62.91100000    84.03400000
   H     49.70300000    63.63700000    85.23700000
   H     50.33100000    61.98900000    85.48300000
   H     47.96000000    62.55000000    84.31000000
  Ca     45.38000000    55.14000000    81.50000000
   O     45.73000000    52.69000000    82.67000000
   H     46.46000000    52.23000000    82.26000000
   H     45.78000000    52.45000000    83.59000000
   O     46.09000000    55.35000000    84.25000000
   H     45.85000000    56.26000000    84.44000000
   H     46.12000000    54.93000000    85.11000000
   O     47.97000000    54.16000000    81.17000000
   H     48.00000000    53.82000000    80.27000000
   H     48.88000000    54.18000000    81.45000000

Ca 1.00



