%chk=loop2.apoCaM-CA-Ng.Init293.run76.water6.chk
%nprocshared=20
%mem=10GB
%nosave
#b3lyp/svp scf=(tight,noincore,xqc) Test 
#IOP(5/87=12) Density=Current Pop=(MK,readradii) iop(6/33=2) iop(6/42=6)

loop2.apoCaM-CA-Ng.Init293.run76.water6 

   -2  1 
   C     87.77000000    89.89000000    31.65000000
   C     88.93000000    90.86000000    31.86000000
   O     88.67000000    92.01000000    32.20000000
   H     86.92200000    90.42500000    31.22300000
   H     88.07800000    89.09600000    30.96900000
   H     87.48000000    89.45700000    32.60700000
   N     90.19000000    90.50000000    31.62000000
   C     91.44000000    91.21000000    31.88000000
   C     91.61000000    92.25000000    30.78000000
   O     91.98000000    93.41000000    30.97000000
   C     92.60000000    90.23000000    31.83000000
   C     93.91000000    90.83000000    32.33000000
   O     94.01000000    91.76000000    33.16000000
   O     94.90000000    90.13000000    32.01000000
   H     90.34000000    89.52000000    31.42000000
   H     91.42000000    91.59000000    32.90000000
   H     92.72000000    89.78000000    30.85000000
   H     92.41000000    89.35000000    32.45000000
   N     91.09000000    91.97000000    29.58000000
   C     90.97000000    92.89000000    28.47000000
   C     90.28000000    94.21000000    28.74000000
   O     90.65000000    95.23000000    28.17000000
   C     92.23000000    92.80000000    27.61000000
   H     90.81000000    91.02000000    29.38000000
   H     90.29000000    92.32000000    27.83000000
   H     92.73000000    91.84000000    27.67000000
   H     91.83000000    93.04000000    26.62000000
   H     92.91000000    93.53000000    28.03000000
   N     89.26000000    94.11000000    29.60000000
   C     88.47000000    95.27000000    29.98000000
   C     89.16000000    96.34000000    30.81000000
   O     88.52000000    97.38000000    31.01000000
   C     87.59000000    95.76000000    28.84000000
   C     86.74000000    94.67000000    28.19000000
   O     85.98000000    93.95000000    28.86000000
   O     86.80000000    94.57000000    26.94000000
   H     89.09000000    93.24000000    30.08000000
   H     87.68000000    94.93000000    30.66000000
   H     88.17000000    96.22000000    28.03000000
   H     86.93000000    96.46000000    29.34000000
   N     90.41000000    96.18000000    31.24000000
   C     91.14000000    97.08000000    32.11000000
   C     90.32000000    97.76000000    33.19000000
   O     89.51000000    97.07000000    33.81000000
   H     90.83000000    95.28000000    31.07000000
   H     91.60000000    97.81000000    31.44000000
   H     91.92000000    96.52000000    32.62000000
   N     90.47000000    99.08000000    33.31000000
   C     89.84000000    99.90000000    34.33000000
   C     89.74000000    99.40000000    35.76000000
   O     88.79000000    99.68000000    36.49000000
   C     88.53000000   100.48000000    33.79000000
   C     88.61000000   100.96000000    32.35000000
   N     87.67000000   100.54000000    31.50000000
   O     89.52000000   101.71000000    32.00000000
   H     91.02000000    99.52000000    32.59000000
   H     90.53000000   100.74000000    34.40000000
   H     88.29000000   101.38000000    34.35000000
   H     87.71000000    99.77000000    33.82000000
   H     87.12000000    99.73000000    31.77000000
   H     87.82000000   100.73000000    30.52000000
   N     90.76000000    98.64000000    36.18000000
   C     90.73000000    97.93000000    37.45000000
   C     90.10000000    96.54000000    37.48000000
   O     90.30000000    95.84000000    38.47000000
   H     91.68000000    98.75000000    35.78000000
   H     90.11000000    98.52000000    38.12000000
   H     91.72000000    97.89000000    37.90000000
   N     89.45000000    96.08000000    36.42000000
   C     88.92000000    94.75000000    36.20000000
   C     87.40000000    94.78000000    36.33000000
   O     86.77000000    95.77000000    35.98000000
   C     89.34000000    94.00000000    34.94000000
   C     90.84000000    94.11000000    34.71000000
   O     89.06000000    92.62000000    34.99000000
   H     89.40000000    96.75000000    35.65000000
   H     89.27000000    94.12000000    37.02000000
   H     88.78000000    94.42000000    34.10000000
   H     89.24000000    92.30000000    34.11000000
   H     91.48000000    93.58000000    35.43000000
   H     91.01000000    93.83000000    33.67000000
   H     91.15000000    95.13000000    34.91000000
   N     86.69000000    93.73000000    36.77000000
   C     85.25000000    93.61000000    36.73000000
   C     84.79000000    93.67000000    35.28000000
   O     85.33000000    93.08000000    34.34000000
   C     84.77000000    92.35000000    37.44000000
   C     84.94000000    92.78000000    38.89000000
   C     83.37000000    91.91000000    37.02000000
   C     85.10000000    91.52000000    39.73000000
   H     87.21000000    92.93000000    37.12000000
   H     84.73000000    94.45000000    37.19000000
   H     85.44000000    91.57000000    37.08000000
   H     84.09000000    93.42000000    39.15000000
   H     85.84000000    93.38000000    39.01000000
   H     82.67000000    92.74000000    37.10000000
   H     83.30000000    91.46000000    36.03000000
   H     83.06000000    91.20000000    37.77000000
   H     84.15000000    91.00000000    39.87000000
   H     85.87000000    90.92000000    39.25000000
   H     85.40000000    91.76000000    40.75000000
   N     83.74000000    94.47000000    35.08000000
   C     83.05000000    94.61000000    33.82000000
   C     82.46000000    96.01000000    33.72000000
   O     81.24000000    96.18000000    33.68000000
   C     82.04000000    93.47000000    33.76000000
   C     81.45000000    93.18000000    32.39000000
   O     82.08000000    93.63000000    31.41000000
   O     80.36000000    92.59000000    32.23000000
   H     83.24000000    94.87000000    35.86000000
   H     83.73000000    94.53000000    32.98000000
   H     81.20000000    93.46000000    34.45000000
   H     82.50000000    92.49000000    33.94000000
   N     83.34000000    97.01000000    33.67000000
   C     82.98000000    98.41000000    33.74000000
   C     84.06000000    99.30000000    34.33000000
   O     84.39000000   100.33000000    33.74000000
   C     82.65000000    98.84000000    32.32000000
   C     81.93000000   100.16000000    32.17000000
   C     82.40000000   101.19000000    31.35000000
   C     80.68000000   100.32000000    32.78000000
   C     81.72000000   102.41000000    31.27000000
   C     79.99000000   101.53000000    32.72000000
   C     80.47000000   102.56000000    31.89000000
   H     84.32000000    96.78000000    33.58000000
   H     82.06000000    98.49000000    34.33000000
   H     81.94000000    98.09000000    31.94000000
   H     83.49000000    98.74000000    31.63000000
   H     83.40000000   101.20000000    30.95000000
   H     80.34000000    99.49000000    33.39000000
   H     82.16000000   103.25000000    30.75000000
   H     79.20000000   101.80000000    33.40000000
   H     79.91000000   103.47000000    31.79000000
   N     84.55000000    99.04000000    35.55000000
   C     84.37000000    97.99000000    36.53000000
   C     82.92000000    97.95000000    36.98000000
   O     82.31000000    96.89000000    36.82000000
   C     85.28000000    98.20000000    37.74000000
   C     85.56000000    99.69000000    37.64000000
   C     85.43000000   100.02000000    36.15000000
   H     84.60000000    97.01000000    36.12000000
   H     84.87000000    97.96000000    38.72000000
   H     86.21000000    97.67000000    37.55000000
   H     84.84000000   100.24000000    38.24000000
   H     86.57000000    99.94000000    37.96000000
   H     85.09000000   101.05000000    36.13000000
   H     86.41000000    99.91000000    35.68000000
   N     82.48000000    99.07000000    37.56000000
   C     81.20000000    99.29000000    38.19000000
   C     80.81000000    98.21000000    39.20000000
   O     79.87000000    97.44000000    39.04000000
   C     80.19000000    99.55000000    37.07000000
   C     80.56000000   100.68000000    36.12000000
   C     80.64000000   102.05000000    36.79000000
   O     79.59000000   102.68000000    37.03000000
   O     81.67000000   102.41000000    37.40000000
   H     83.10000000    99.86000000    37.63000000
   H     81.18000000   100.25000000    38.71000000
   H     79.32000000    99.91000000    37.60000000
   H     80.04000000    98.66000000    36.46000000
   H     79.79000000   100.77000000    35.36000000
   H     81.53000000   100.43000000    35.70000000
   N     81.59000000    98.17000000    40.29000000
   C     81.53000000    97.17000000    41.34000000
   H     80.50500000    97.08200000    41.69900000
   H     81.86000000    96.20900000    40.94600000
   H     82.17900000    97.46800000    42.16400000
   H     82.21000000    98.96000000    40.43000000
  Ca     83.49000000    93.73000000    29.20000000
   O     83.47000000    96.18000000    27.97000000
   H     82.72000000    96.74000000    28.15000000
   H     84.16000000    96.78000000    27.70000000
   O     81.91000000    91.72000000    28.57000000
   H     81.67000000    90.91000000    29.00000000
   H     81.63000000    91.60000000    27.66000000
   O     80.98000000    94.97000000    29.05000000
   H     80.23000000    94.80000000    29.63000000
   H     80.66000000    95.63000000    28.43000000
   O     84.29000000    93.58000000    26.71000000
   H     84.12000000    93.53000000    25.77000000
   H     85.18000000    93.92000000    26.77000000
   O     84.60000000    95.63000000    30.76000000
   H     84.65000000    96.51000000    31.15000000
   H     85.36000000    95.17000000    31.13000000
   O     84.24000000    91.32000000    30.14000000
   H     84.41000000    90.51000000    29.65000000
   H     84.32000000    91.07000000    31.06000000

Ca 1.00



