%chk=loop4.apoCaM-CA-Ng.Init31.run73.water5.chk
%nprocshared=20
%mem=10GB
%nosave
#b3lyp/svp scf=(tight,noincore,xqc) Test 
#IOP(5/87=12) Density=Current Pop=(MK,readradii) iop(6/33=2) iop(6/42=6)

loop4.apoCaM-CA-Ng.Init31.run73.water5 

   -3  1 
   C    104.92000000    32.98000000    27.23000000
   C    105.41000000    34.41000000    27.42000000
   O    104.61000000    35.34000000    27.45000000
   H    103.97000000    32.99000000    26.69500000
   H    105.65500000    32.41700000    26.65400000
   H    104.78300000    32.51000000    28.20400000
   N    106.69000000    34.73000000    27.62000000
   C    107.86000000    33.92000000    27.89000000
   C    107.94000000    33.39000000    29.31000000
   O    108.58000000    32.38000000    29.60000000
   C    109.20000000    34.54000000    27.48000000
   C    110.41000000    33.62000000    27.44000000
   O    111.45000000    34.09000000    27.96000000
   O    110.38000000    32.43000000    27.05000000
   H    106.87000000    35.73000000    27.59000000
   H    107.81000000    33.05000000    27.23000000
   H    109.42000000    35.31000000    28.22000000
   H    109.20000000    34.99000000    26.49000000
   N    107.19000000    34.04000000    30.21000000
   C    106.74000000    33.56000000    31.50000000
   C    107.77000000    33.93000000    32.56000000
   O    107.92000000    33.15000000    33.50000000
   C    105.30000000    33.91000000    31.87000000
   C    104.73000000    33.07000000    33.00000000
   C    105.10000000    35.39000000    32.15000000
   C    103.32000000    33.48000000    33.42000000
   H    106.61000000    34.80000000    29.88000000
   H    106.78000000    32.47000000    31.40000000
   H    104.76000000    33.72000000    30.94000000
   H    105.38000000    33.16000000    33.87000000
   H    104.64000000    32.05000000    32.62000000
   H    105.51000000    35.64000000    33.14000000
   H    105.84000000    35.90000000    31.52000000
   H    104.11000000    35.83000000    32.14000000
   H    102.95000000    33.02000000    34.34000000
   H    103.17000000    34.53000000    33.67000000
   H    102.60000000    33.32000000    32.62000000
   N    108.42000000    35.09000000    32.44000000
   C    109.41000000    35.51000000    33.42000000
   C    110.81000000    35.60000000    32.84000000
   O    111.77000000    35.51000000    33.61000000
   C    108.90000000    36.79000000    34.06000000
   C    109.67000000    37.11000000    35.34000000
   O    110.70000000    37.81000000    35.30000000
   O    109.40000000    36.43000000    36.36000000
   H    108.29000000    35.69000000    31.64000000
   H    109.59000000    34.76000000    34.19000000
   H    107.85000000    36.67000000    34.33000000
   H    108.98000000    37.63000000    33.37000000
   N    110.97000000    35.70000000    31.52000000
   C    112.29000000    35.65000000    30.91000000
   C    113.03000000    36.98000000    30.97000000
   O    112.41000000    38.03000000    31.18000000
   H    110.19000000    35.69000000    30.88000000
   H    112.15000000    35.25000000    29.91000000
   H    112.89000000    35.00000000    31.54000000
   N    114.34000000    36.93000000    30.76000000
   C    115.23000000    38.07000000    30.59000000
   C    115.73000000    38.68000000    31.89000000
   O    115.78000000    37.94000000    32.88000000
   C    116.37000000    37.68000000    29.65000000
   C    117.33000000    36.70000000    30.29000000
   O    118.53000000    37.03000000    30.22000000
   O    116.95000000    35.58000000    30.69000000
   H    114.66000000    35.99000000    30.59000000
   H    114.56000000    38.70000000    29.99000000
   H    116.82000000    38.63000000    29.34000000
   H    115.86000000    37.15000000    28.84000000
   N    115.98000000    39.98000000    32.01000000
   C    115.35000000    41.05000000    31.26000000
   C    115.25000000    42.38000000    32.00000000
   O    114.68000000    42.44000000    33.08000000
   H    116.19000000    40.27000000    32.96000000
   H    114.32000000    40.77000000    31.02000000
   H    116.00000000    41.18000000    30.40000000
   N    115.97000000    43.44000000    31.62000000
   C    116.49000000    43.71000000    30.30000000
   C    115.51000000    43.47000000    29.16000000
   O    114.29000000    43.55000000    29.25000000
   C    117.91000000    43.19000000    30.08000000
   C    118.88000000    43.51000000    31.21000000
   C    120.23000000    42.85000000    30.94000000
   N    121.06000000    43.28000000    29.99000000
   O    120.56000000    41.84000000    31.57000000
   H    115.93000000    44.23000000    32.25000000
   H    116.69000000    44.78000000    30.33000000
   H    118.22000000    43.69000000    29.16000000
   H    117.88000000    42.14000000    29.80000000
   H    118.62000000    43.15000000    32.21000000
   H    119.05000000    44.58000000    31.38000000
   H    120.80000000    44.06000000    29.40000000
   H    121.88000000    42.73000000    29.79000000
   N    116.06000000    43.09000000    28.01000000
   C    115.39000000    42.54000000    26.84000000
   C    116.25000000    42.76000000    25.61000000
   O    117.39000000    43.20000000    25.77000000
   C    114.98000000    41.07000000    26.90000000
   C    113.85000000    40.78000000    27.88000000
   C    116.13000000    40.12000000    27.19000000
   H    116.99000000    43.42000000    27.80000000
   H    114.46000000    43.11000000    26.73000000
   H    114.67000000    40.82000000    25.88000000
   H    113.05000000    41.50000000    27.72000000
   H    113.42000000    39.79000000    27.75000000
   H    114.18000000    40.94000000    28.91000000
   H    116.61000000    40.42000000    28.12000000
   H    115.75000000    39.10000000    27.27000000
   H    116.85000000    40.13000000    26.37000000
   N    115.72000000    42.56000000    24.40000000
   C    116.47000000    42.77000000    23.18000000
   C    116.99000000    41.46000000    22.61000000
   O    117.57000000    41.46000000    21.52000000
   C    115.58000000    43.49000000    22.17000000
   C    115.15000000    44.87000000    22.63000000
   N    116.11000000    45.78000000    22.83000000
   O    113.99000000    45.05000000    23.00000000
   H    114.76000000    42.25000000    24.38000000
   H    117.41000000    43.29000000    23.38000000
   H    114.78000000    42.83000000    21.80000000
   H    116.19000000    43.64000000    21.28000000
   H    117.08000000    45.56000000    22.66000000
   H    115.91000000    46.70000000    23.19000000
   N    116.74000000    40.30000000    23.23000000
   C    117.14000000    38.97000000    22.82000000
   C    116.15000000    37.94000000    23.34000000
   O    115.41000000    38.15000000    24.30000000
   C    118.57000000    38.70000000    23.27000000
   C    118.87000000    38.80000000    24.75000000
   C    118.75000000    37.64000000    25.53000000
   C    119.44000000    39.96000000    25.28000000
   C    119.00000000    37.69000000    26.91000000
   C    119.86000000    39.94000000    26.62000000
   C    119.60000000    38.84000000    27.45000000
   O    119.85000000    38.95000000    28.79000000
   H    116.50000000    40.40000000    24.21000000
   H    117.12000000    39.01000000    21.73000000
   H    119.27000000    39.35000000    22.74000000
   H    118.90000000    37.71000000    22.95000000
   H    118.45000000    36.69000000    25.13000000
   H    119.50000000    40.87000000    24.71000000
   H    118.87000000    36.84000000    27.57000000
   H    120.23000000    40.90000000    26.94000000
   H    119.58000000    38.12000000    29.18000000
   N    116.17000000    36.76000000    22.70000000
   C    115.21000000    35.72000000    23.00000000
   C    113.78000000    36.10000000    22.67000000
   O    113.52000000    36.90000000    21.76000000
   C    115.63000000    34.41000000    22.32000000
   C    116.79000000    33.68000000    22.99000000
   C    116.96000000    32.27000000    22.45000000
   O    117.15000000    31.38000000    23.31000000
   O    116.98000000    32.04000000    21.22000000
   H    116.71000000    36.61000000    21.86000000
   H    115.34000000    35.56000000    24.07000000
   H    115.86000000    34.62000000    21.28000000
   H    114.81000000    33.71000000    22.43000000
   H    116.72000000    33.62000000    24.08000000
   H    117.73000000    34.20000000    22.80000000
   N    112.80000000    35.57000000    23.40000000
   C    111.37000000    35.75000000    23.28000000
   C    110.88000000    37.00000000    24.01000000
   O    110.18000000    36.82000000    25.00000000
   C    110.84000000    34.44000000    23.84000000
   C    110.95000000    33.21000000    22.94000000
   C    110.65000000    32.01000000    23.83000000
   O    109.55000000    31.42000000    23.77000000
   O    111.59000000    31.64000000    24.56000000
   H    113.08000000    35.02000000    24.20000000
   H    111.15000000    35.91000000    22.23000000
   H    109.78000000    34.57000000    24.05000000
   H    111.21000000    34.23000000    24.84000000
   H    111.95000000    33.13000000    22.52000000
   H    110.30000000    33.23000000    22.07000000
   N    111.26000000    38.15000000    23.45000000
   C    110.73000000    39.45000000    23.80000000
   H    109.75000000    39.33000000    24.26200000
   H    111.40400000    39.94100000    24.50200000
   H    110.63500000    40.05800000    22.90100000
   H    111.70000000    38.06000000    22.54000000
  Ca    110.11200000    29.86000000    25.85000000
   O    109.09200000    28.64000000    23.66000000
   H    109.35200000    29.01000000    22.82000000
   H    108.77200000    27.76000000    23.46000000
   O    110.99200000    27.47000000    26.84000000
   H    111.01200000    27.48000000    27.80000000
   H    110.90200000    26.55000000    26.61000000
   O    112.21200000    28.87000000    24.08000000
   H    112.88200000    29.55000000    24.05000000
   H    111.89200000    28.80000000    23.18000000
   O    109.54200000    29.87000000    28.53000000
   H    109.78200000    30.74000000    28.86000000
   H    109.24200000    29.39000000    29.31000000
   O    112.40200000    30.48000000    27.45000000
   H    112.61200000    30.30000000    28.36000000
   H    112.48200000    31.43000000    27.37000000

Ca 1.00



