%chk=loop3.apoCaM-CA-Ng.Init31.run11.water6.chk
%nprocshared=20
%mem=10GB
%nosave
#b3lyp/svp scf=(tight,noincore,xqc) Test 
#IOP(5/87=12) Density=Current Pop=(MK,readradii) iop(6/33=2) iop(6/42=6)

loop3.apoCaM-CA-Ng.Init31.run11.water6 

   0  1 
   C     94.05000000    78.56000000    24.12000000
   C     94.15000000    78.20000000    25.60000000
   O     93.38000000    78.69000000    26.42000000
   H     93.62400000    79.55800000    24.01700000
   H     95.04400000    78.54200000    23.67300000
   H     93.41000000    77.83800000    23.61200000
   N     95.01000000    77.23000000    25.90000000
   C     94.94000000    76.59000000    27.20000000
   C     95.29000000    77.47000000    28.39000000
   O     94.62000000    77.33000000    29.41000000
   C     95.91000000    75.41000000    27.21000000
   C     97.33000000    75.55000000    26.70000000
   O     98.00000000    74.51000000    26.50000000
   O     97.90000000    76.63000000    26.44000000
   H     95.41000000    76.70000000    25.14000000
   H     93.94000000    76.19000000    27.36000000
   H     95.38000000    74.65000000    26.63000000
   H     96.00000000    74.99000000    28.21000000
   N     96.31000000    78.32000000    28.26000000
   C     96.93000000    79.04000000    29.35000000
   C     97.63000000    78.08000000    30.31000000
   O     98.78000000    77.69000000    30.14000000
   C     97.97000000    80.04000000    28.86000000
   C     97.51000000    81.12000000    27.89000000
   C     98.74000000    81.89000000    27.41000000
   C     98.36000000    83.18000000    26.69000000
   N     98.23000000    83.10000000    25.23000000
   H     96.79000000    78.23000000    27.37000000
   H     96.12000000    79.53000000    29.90000000
   H     98.86000000    79.54000000    28.48000000
   H     98.36000000    80.53000000    29.76000000
   H     96.86000000    81.85000000    28.37000000
   H     96.96000000    80.78000000    27.02000000
   H     99.37000000    81.19000000    26.85000000
   H     99.26000000    82.25000000    28.30000000
   H     99.17000000    83.88000000    26.90000000
   H     97.43000000    83.61000000    27.06000000
   H     99.04000000    82.71000000    24.77000000
   H     97.40000000    82.58000000    24.96000000
   H     98.19000000    84.06000000    24.92000000
   N     96.90000000    77.76000000    31.38000000
   C     97.40000000    76.87000000    32.41000000
   C     96.49000000    75.65000000    32.55000000
   O     96.67000000    74.85000000    33.46000000
   C     97.59000000    77.65000000    33.70000000
   C     96.43000000    78.53000000    34.14000000
   O     96.41000000    79.66000000    33.61000000
   O     95.56000000    78.09000000    34.93000000
   H     95.92000000    77.99000000    31.43000000
   H     98.35000000    76.41000000    32.13000000
   H     98.46000000    78.30000000    33.58000000
   H     97.91000000    77.03000000    34.54000000
   N     95.57000000    75.45000000    31.60000000
   C     94.76000000    74.26000000    31.44000000
   C     95.51000000    73.01000000    31.02000000
   O     96.70000000    73.11000000    30.73000000
   H     95.55000000    76.13000000    30.85000000
   H     94.04000000    74.50000000    30.66000000
   H     94.23000000    74.02000000    32.36000000
   N     94.89000000    71.83000000    30.88000000
   C     93.53000000    71.51000000    31.25000000
   C     92.77000000    70.76000000    30.17000000
   O     93.00000000    69.56000000    30.01000000
   C     93.64000000    70.71000000    32.54000000
   C     94.29000000    71.45000000    33.70000000
   N     95.51000000    71.00000000    34.01000000
   O     93.84000000    72.45000000    34.26000000
   H     95.47000000    71.05000000    30.60000000
   H     92.95000000    72.43000000    31.39000000
   H     94.06000000    69.70000000    32.50000000
   H     92.60000000    70.55000000    32.84000000
   H     95.90000000    70.29000000    33.41000000
   H     96.04000000    71.34000000    34.80000000
   N     92.09000000    71.47000000    29.27000000
   C     92.09000000    72.91000000    29.07000000
   C     91.08000000    73.67000000    29.92000000
   O     91.22000000    74.89000000    29.95000000
   H     91.59000000    70.98000000    28.55000000
   H     91.92000000    73.20000000    28.04000000
   H     93.03000000    73.38000000    29.37000000
   N     90.05000000    73.08000000    30.54000000
   C     89.17000000    73.73000000    31.49000000
   C     89.86000000    73.91000000    32.83000000
   O     90.80000000    73.15000000    33.08000000
   C     87.82000000    73.03000000    31.60000000
   C     86.97000000    72.98000000    30.35000000
   C     86.73000000    74.17000000    29.66000000
   C     86.49000000    71.76000000    29.86000000
   C     85.97000000    74.12000000    28.48000000
   C     85.63000000    71.72000000    28.76000000
   C     85.47000000    72.90000000    28.00000000
   O     84.61000000    72.95000000    26.94000000
   H     90.16000000    72.08000000    30.68000000
   H     88.98000000    74.78000000    31.30000000
   H     87.14000000    73.43000000    32.36000000
   H     88.13000000    72.04000000    31.95000000
   H     87.02000000    75.13000000    30.07000000
   H     86.63000000    70.87000000    30.46000000
   H     85.71000000    75.05000000    28.01000000
   H     85.16000000    70.77000000    28.53000000
   H     84.24000000    72.08000000    26.76000000
   N     89.50000000    74.95000000    33.58000000
   C     90.31000000    75.63000000    34.58000000
   C     89.68000000    75.62000000    35.97000000
   O     90.34000000    75.92000000    36.96000000
   C     90.51000000    77.03000000    34.00000000
   C     91.33000000    77.28000000    32.74000000
   C     89.21000000    77.84000000    33.91000000
   C     92.66000000    76.54000000    32.81000000
   H     88.72000000    75.48000000    33.22000000
   H     91.32000000    75.23000000    34.61000000
   H     91.13000000    77.55000000    34.72000000
   H     91.53000000    78.35000000    32.63000000
   H     90.92000000    76.80000000    31.85000000
   H     88.53000000    77.41000000    33.18000000
   H     88.76000000    77.94000000    34.90000000
   H     89.44000000    78.79000000    33.43000000
   H     92.50000000    75.47000000    32.89000000
   H     93.10000000    76.65000000    31.82000000
   H     93.39000000    76.94000000    33.52000000
   N     88.43000000    75.18000000    36.10000000
   C     87.79000000    75.01000000    37.39000000
   C     87.32000000    76.33000000    37.97000000
   O     86.71000000    77.15000000    37.28000000
   C     86.63000000    74.03000000    37.23000000
   O     86.90000000    72.65000000    37.26000000
   H     87.84000000    75.03000000    35.29000000
   H     88.49000000    74.55000000    38.09000000
   H     86.26000000    74.24000000    36.23000000
   H     85.90000000    74.35000000    37.97000000
   H     86.21000000    72.19000000    36.78000000
   N     87.57000000    76.46000000    39.28000000
   C     86.91000000    77.37000000    40.19000000
   C     87.50000000    78.77000000    40.11000000
   O     88.69000000    79.09000000    40.11000000
   C     87.14000000    76.72000000    41.55000000
   H     88.11000000    75.76000000    39.78000000
   H     85.86000000    77.34000000    39.92000000
   H     86.71000000    77.22000000    42.42000000
   H     86.77000000    75.69000000    41.58000000
   H     88.20000000    76.63000000    41.76000000
   N     86.54000000    79.70000000    40.20000000
   C     86.74000000    81.13000000    40.19000000
   C     87.71000000    81.76000000    39.21000000
   O     88.36000000    82.79000000    39.39000000
   C     87.03000000    81.54000000    41.64000000
   H     85.60000000    79.35000000    40.13000000
   H     85.79000000    81.66000000    40.14000000
   H     86.20000000    81.19000000    42.26000000
   H     87.94000000    81.05000000    41.98000000
   H     87.08000000    82.62000000    41.71000000
   N     87.77000000    81.19000000    38.00000000
   C     88.73000000    81.54000000    36.97000000
   C     88.14000000    81.80000000    35.59000000
   O     88.83000000    82.20000000    34.65000000
   C     89.81000000    80.46000000    36.97000000
   C     90.99000000    80.86000000    37.85000000
   C     92.19000000    79.94000000    37.66000000
   O     92.54000000    79.20000000    38.60000000
   O     92.88000000    80.07000000    36.62000000
   H     87.24000000    80.36000000    37.80000000
   H     89.22000000    82.48000000    37.24000000
   H     90.29000000    80.20000000    36.03000000
   H     89.42000000    79.50000000    37.30000000
   H     90.65000000    80.88000000    38.89000000
   H     91.30000000    81.86000000    37.55000000
   N     86.85000000    81.53000000    35.39000000
   C     86.06000000    82.06000000    34.29000000
   H     85.16300000    82.53700000    34.68500000
   H     86.64900000    82.79400000    33.74000000
   H     85.77500000    81.24700000    33.62200000
   H     86.35000000    81.16000000    36.19000000
  Ca     94.88000000    78.50000000    37.48000000
   O     95.30000000    80.33000000    39.51000000
   H     95.45000000    81.26000000    39.68000000
   H     95.62000000    79.89000000    40.30000000
   O     94.61000000    77.38000000    40.05000000
   H     95.06000000    77.29000000    40.90000000
   H     94.02000000    76.63000000    40.02000000
   O     97.87000000    78.83000000    37.64000000
   H     98.47000000    78.41000000    37.02000000
   H     98.33000000    79.62000000    37.92000000
   O     93.10000000    76.59000000    37.07000000
   H     92.19000000    76.38000000    37.26000000
   H     93.40000000    75.87000000    36.52000000
   O     96.33000000    76.23000000    37.58000000
   H     96.33000000    75.98000000    38.51000000
   H     96.53000000    75.42000000    37.12000000
   O     95.90000000    80.76000000    36.13000000
   H     95.96000000    80.67000000    35.18000000
   H     96.62000000    81.35000000    36.36000000

Ca 1.00



