%chk=loop4.holoCaM.run5.water2.chk
%nprocshared=20
%mem=10GB
%nosave
#b3lyp/svp scf=(tight,noincore,xqc) Test 
#IOP(5/87=12) Density=Current Pop=(MK,readradii) iop(6/33=2) iop(6/42=6)

loop4.holoCaM.run5.water2 

   -3  1 
   C     28.81000000    20.73000000    40.93000000
   C     30.09000000    20.00000000    41.30000000
   O     30.91000000    19.71000000    40.43000000
   H     28.04000000    20.51100000    41.67000000
   H     28.99700000    21.80400000    40.90800000
   H     28.47300000    20.39900000    39.94700000
   N     30.23000000    19.56000000    42.55000000
   C     31.38000000    18.80000000    43.02000000
   C     31.44000000    17.45000000    42.32000000
   O     30.44000000    16.75000000    42.24000000
   C     31.31000000    18.64000000    44.53000000
   C     32.27000000    17.63000000    45.14000000
   O     33.41000000    17.54000000    44.63000000
   O     31.99000000    17.08000000    46.23000000
   H     29.54000000    19.85000000    43.22000000
   H     32.36000000    19.23000000    42.78000000
   H     30.27000000    18.40000000    44.72000000
   H     31.29000000    19.60000000    45.04000000
   N     32.60000000    17.04000000    41.80000000
   C     32.75000000    15.79000000    41.07000000
   C     33.58000000    14.72000000    41.76000000
   O     33.47000000    13.55000000    41.41000000
   C     33.13000000    16.00000000    39.60000000
   C     34.54000000    16.57000000    39.56000000
   C     32.14000000    16.84000000    38.79000000
   C     35.26000000    16.55000000    38.21000000
   H     33.27000000    17.79000000    41.73000000
   H     31.76000000    15.35000000    41.05000000
   H     33.13000000    15.01000000    39.15000000
   H     35.24000000    16.16000000    40.28000000
   H     34.51000000    17.62000000    39.87000000
   H     31.32000000    16.12000000    38.78000000
   H     31.83000000    17.76000000    39.29000000
   H     32.40000000    16.89000000    37.74000000
   H     34.62000000    17.13000000    37.55000000
   H     36.27000000    16.92000000    38.32000000
   H     35.23000000    15.51000000    37.86000000
   N     34.48000000    15.11000000    42.67000000
   C     35.39000000    14.26000000    43.41000000
   C     35.01000000    13.97000000    44.85000000
   O     35.48000000    12.97000000    45.40000000
   C     36.83000000    14.71000000    43.18000000
   C     37.04000000    16.21000000    43.36000000
   O     38.04000000    16.73000000    42.82000000
   O     36.25000000    16.92000000    44.03000000
   H     34.51000000    16.10000000    42.88000000
   H     35.32000000    13.28000000    42.94000000
   H     37.08000000    14.36000000    42.18000000
   H     37.57000000    14.26000000    43.84000000
   N     34.12000000    14.74000000    45.49000000
   C     33.52000000    14.31000000    46.73000000
   C     34.23000000    14.97000000    47.90000000
   O     34.80000000    14.17000000    48.65000000
   H     33.70000000    15.47000000    44.93000000
   H     33.69000000    13.23000000    46.82000000
   H     32.48000000    14.65000000    46.76000000
   N     34.16000000    16.29000000    48.07000000
   C     34.50000000    17.08000000    49.23000000
   C     33.42000000    17.98000000    49.81000000
   O     33.56000000    18.41000000    50.95000000
   C     35.75000000    17.89000000    48.93000000
   C     35.74000000    18.50000000    47.54000000
   O     34.66000000    18.94000000    47.07000000
   O     36.77000000    18.48000000    46.82000000
   H     33.68000000    16.79000000    47.33000000
   H     34.89000000    16.43000000    50.01000000
   H     36.63000000    17.24000000    48.86000000
   H     35.91000000    18.63000000    49.72000000
   N     32.43000000    18.34000000    48.98000000
   C     31.48000000    19.41000000    49.25000000
   C     31.92000000    20.82000000    48.89000000
   O     31.56000000    21.77000000    49.59000000
   H     32.43000000    17.85000000    48.10000000
   H     31.23000000    19.40000000    50.31000000
   H     30.50000000    19.22000000    48.82000000
   N     32.77000000    21.02000000    47.89000000
   C     33.25000000    22.28000000    47.36000000
   C     33.35000000    22.22000000    45.84000000
   O     33.47000000    21.17000000    45.21000000
   C     34.58000000    22.74000000    47.94000000
   C     34.49000000    22.93000000    49.46000000
   C     35.75000000    23.27000000    50.24000000
   N     35.75000000    23.15000000    51.57000000
   O     36.73000000    23.82000000    49.73000000
   H     33.29000000    20.19000000    47.64000000
   H     32.59000000    23.13000000    47.56000000
   H     34.89000000    23.71000000    47.53000000
   H     35.33000000    21.98000000    47.71000000
   H     34.15000000    21.97000000    49.86000000
   H     33.76000000    23.69000000    49.71000000
   H     34.85000000    22.84000000    51.91000000
   H     36.45000000    23.55000000    52.18000000
   N     33.54000000    23.40000000    45.26000000
   C     34.04000000    23.54000000    43.91000000
   C     35.51000000    23.94000000    43.92000000
   O     35.86000000    24.83000000    44.69000000
   C     33.18000000    24.47000000    43.05000000
   C     31.86000000    23.81000000    42.67000000
   C     32.89000000    25.87000000    43.57000000
   H     33.56000000    24.20000000    45.88000000
   H     34.07000000    22.62000000    43.33000000
   H     33.70000000    24.62000000    42.11000000
   H     32.13000000    22.75000000    42.59000000
   H     31.10000000    23.98000000    43.43000000
   H     31.52000000    24.17000000    41.70000000
   H     32.32000000    25.85000000    44.50000000
   H     33.79000000    26.44000000    43.80000000
   H     32.32000000    26.41000000    42.81000000
   N     36.34000000    23.33000000    43.07000000
   C     37.58000000    23.83000000    42.53000000
   C     37.30000000    24.73000000    41.34000000
   O     36.11000000    24.87000000    41.04000000
   C     38.60000000    22.71000000    42.31000000
   C     38.56000000    22.24000000    40.87000000
   N     37.74000000    21.22000000    40.61000000
   O     39.33000000    22.68000000    40.02000000
   H     35.91000000    22.51000000    42.66000000
   H     38.07000000    24.49000000    43.25000000
   H     38.49000000    21.77000000    42.86000000
   H     39.58000000    23.11000000    42.57000000
   H     37.03000000    20.97000000    41.28000000
   H     37.93000000    20.73000000    39.74000000
   N     38.26000000    25.37000000    40.67000000
   C     38.09000000    26.10000000    39.43000000
   C     37.43000000    25.23000000    38.38000000
   O     36.37000000    25.65000000    37.91000000
   C     39.42000000    26.74000000    39.02000000
   C     39.39000000    27.72000000    37.87000000
   C     38.67000000    28.91000000    38.05000000
   C     39.88000000    27.46000000    36.59000000
   C     38.50000000    29.78000000    36.97000000
   C     39.60000000    28.22000000    35.45000000
   C     38.92000000    29.44000000    35.67000000
   O     38.49000000    30.25000000    34.66000000
   H     39.20000000    25.15000000    40.96000000
   H     37.40000000    26.94000000    39.49000000
   H     40.23000000    26.04000000    38.80000000
   H     39.79000000    27.32000000    39.86000000
   H     38.12000000    29.06000000    38.97000000
   H     40.49000000    26.58000000    36.45000000
   H     37.94000000    30.70000000    37.10000000
   H     39.94000000    27.92000000    34.47000000
   H     38.62000000    29.83000000    33.81000000
   N     37.88000000    24.01000000    38.11000000
   C     37.34000000    23.10000000    37.11000000
   C     35.93000000    22.57000000    37.28000000
   O     35.40000000    21.92000000    36.38000000
   C     38.27000000    21.89000000    37.02000000
   C     39.73000000    22.28000000    36.78000000
   C     40.67000000    21.10000000    36.93000000
   O     40.58000000    20.24000000    36.02000000
   O     41.31000000    20.98000000    38.00000000
   H     38.72000000    23.64000000    38.54000000
   H     37.38000000    23.55000000    36.12000000
   H     37.95000000    21.24000000    36.21000000
   H     38.18000000    21.25000000    37.89000000
   H     40.09000000    23.06000000    37.44000000
   H     39.82000000    22.68000000    35.77000000
   N     35.33000000    22.76000000    38.46000000
   C     33.95000000    22.50000000    38.79000000
   C     33.03000000    23.71000000    38.75000000
   O     31.87000000    23.58000000    38.38000000
   C     33.92000000    21.85000000    40.17000000
   C     34.37000000    20.40000000    40.26000000
   C     34.84000000    19.99000000    41.65000000
   O     35.48000000    20.81000000    42.34000000
   O     34.68000000    18.80000000    41.99000000
   H     35.92000000    23.13000000    39.20000000
   H     33.45000000    21.81000000    38.11000000
   H     32.92000000    21.94000000    40.59000000
   H     34.49000000    22.49000000    40.84000000
   H     35.21000000    20.21000000    39.59000000
   H     33.50000000    19.81000000    39.98000000
   N     33.60000000    24.88000000    39.06000000
   C     32.91000000    26.16000000    39.00000000
   H     31.95700000    26.08300000    39.52300000
   H     33.52300000    26.92600000    39.47400000
   H     32.73200000    26.42900000    37.95900000
   H     34.56000000    24.90000000    39.37000000
  Ca     35.32000000    19.29000000    44.54000000
   O     36.47000000    21.58000000    45.55000000
   H     36.60000000    22.52000000    45.42000000
   H     36.86000000    21.40000000    46.40000000
   O     37.88000000    19.25000000    43.96000000
   H     38.78000000    19.38000000    44.23000000
   H     37.88000000    18.39000000    43.53000000

Ca 1.00



