%chk=loop2.apoCaM-CA-Ng.Init31.run11.water3.chk
%nprocshared=20
%mem=10GB
%nosave
#b3lyp/svp scf=(tight,noincore,xqc) Test 
#IOP(5/87=12) Density=Current Pop=(MK,readradii) iop(6/33=2) iop(6/42=6)

loop2.apoCaM-CA-Ng.Init31.run11.water3 

   -2  1 
   C     56.39000000    60.24000000     9.28000000
   C     56.00000000    61.29000000     8.24000000
   O     56.81000000    62.19000000     8.01000000
   H     57.26800000    60.58100000     9.82900000
   H     55.56300000    60.09100000     9.97500000
   H     56.61800000    59.29900000     8.77900000
   N     54.79000000    61.46000000     7.71000000
   C     53.66000000    60.54000000     7.73000000
   C     52.31000000    60.99000000     8.27000000
   O     51.89000000    62.13000000     8.05000000
   C     53.58000000    60.05000000     6.29000000
   C     53.70000000    61.12000000     5.21000000
   O     54.04000000    60.83000000     4.04000000
   O     53.61000000    62.32000000     5.54000000
   H     54.56000000    62.36000000     7.31000000
   H     54.01000000    59.70000000     8.33000000
   H     52.67000000    59.45000000     6.22000000
   H     54.46000000    59.44000000     6.15000000
   N     51.66000000    60.06000000     8.97000000
   C     50.28000000    60.18000000     9.39000000
   C     49.35000000    60.21000000     8.18000000
   O     48.54000000    59.30000000     8.03000000
   C     50.16000000    61.26000000    10.45000000
   H     52.11000000    59.16000000     9.03000000
   H     50.03000000    59.22000000     9.84000000
   H     50.55000000    62.25000000    10.21000000
   H     49.10000000    61.35000000    10.73000000
   H     50.68000000    60.83000000    11.31000000
   N     49.41000000    61.21000000     7.30000000
   C     48.72000000    61.39000000     6.04000000
   C     49.70000000    61.55000000     4.90000000
   O     50.66000000    62.30000000     5.08000000
   C     47.78000000    62.59000000     6.09000000
   C     48.24000000    63.73000000     6.99000000
   O     49.44000000    64.08000000     7.00000000
   O     47.42000000    64.18000000     7.82000000
   H     50.10000000    61.94000000     7.44000000
   H     48.14000000    60.50000000     5.80000000
   H     46.78000000    62.23000000     6.34000000
   H     47.75000000    63.00000000     5.08000000
   N     49.56000000    60.74000000     3.84000000
   C     50.50000000    60.64000000     2.74000000
   C     50.79000000    61.89000000     1.92000000
   O     51.43000000    61.74000000     0.88000000
   H     48.95000000    59.97000000     4.05000000
   H     50.05000000    59.98000000     2.00000000
   H     51.45000000    60.19000000     3.03000000
   N     50.45000000    63.08000000     2.41000000
   C     50.58000000    64.40000000     1.80000000
   C     52.01000000    64.91000000     1.77000000
   O     52.18000000    66.07000000     1.40000000
   C     49.53000000    65.38000000     2.32000000
   C     49.69000000    65.93000000     3.73000000
   N     48.76000000    66.75000000     4.22000000
   O     50.62000000    65.59000000     4.46000000
   H     50.10000000    63.03000000     3.35000000
   H     50.37000000    64.20000000     0.75000000
   H     48.55000000    64.96000000     2.09000000
   H     49.49000000    66.20000000     1.61000000
   H     48.04000000    67.04000000     3.57000000
   H     48.93000000    67.20000000     5.11000000
   N     53.08000000    64.19000000     2.13000000
   C     54.41000000    64.71000000     2.34000000
   C     54.53000000    65.40000000     3.69000000
   O     53.72000000    65.15000000     4.59000000
   H     52.96000000    63.25000000     2.49000000
   H     54.56000000    65.30000000     1.43000000
   H     55.15000000    63.91000000     2.34000000
   N     55.56000000    66.23000000     3.87000000
   C     56.59000000    66.57000000     2.92000000
   C     58.02000000    66.49000000     3.45000000
   O     58.95000000    66.37000000     2.66000000
   C     56.37000000    67.98000000     2.39000000
   C     55.18000000    68.21000000     1.47000000
   O     56.30000000    68.92000000     3.44000000
   H     55.55000000    66.69000000     4.77000000
   H     56.61000000    65.91000000     2.05000000
   H     57.17000000    68.24000000     1.69000000
   H     56.61000000    69.76000000     3.10000000
   H     54.22000000    67.86000000     1.86000000
   H     55.06000000    69.24000000     1.14000000
   H     55.37000000    67.55000000     0.62000000
   N     58.30000000    66.31000000     4.74000000
   C     59.59000000    66.41000000     5.41000000
   C     60.09000000    67.81000000     5.09000000
   O     60.90000000    68.03000000     4.19000000
   C     60.41000000    65.17000000     5.07000000
   C     59.76000000    63.98000000     5.77000000
   C     61.78000000    65.37000000     5.71000000
   C     59.95000000    62.70000000     4.97000000
   H     57.54000000    66.19000000     5.40000000
   H     59.40000000    66.35000000     6.48000000
   H     60.59000000    65.03000000     4.01000000
   H     58.70000000    64.11000000     6.00000000
   H     60.28000000    63.86000000     6.72000000
   H     62.20000000    66.22000000     5.18000000
   H     61.55000000    65.73000000     6.71000000
   H     62.40000000    64.46000000     5.67000000
   H     59.64000000    62.80000000     3.93000000
   H     60.96000000    62.29000000     4.99000000
   H     59.39000000    61.90000000     5.46000000
   N     59.59000000    68.81000000     5.82000000
   C     58.66000000    68.80000000     6.92000000
   C     59.34000000    68.52000000     8.25000000
   O     58.72000000    67.95000000     9.14000000
   C     57.95000000    70.14000000     7.05000000
   C     58.75000000    71.43000000     6.86000000
   O     59.76000000    71.51000000     6.12000000
   O     58.23000000    72.39000000     7.46000000
   H     59.87000000    69.74000000     5.54000000
   H     57.82000000    68.10000000     6.85000000
   H     57.49000000    70.21000000     8.03000000
   H     57.25000000    70.30000000     6.23000000
   N     60.62000000    68.89000000     8.33000000
   C     61.34000000    68.66000000     9.56000000
   C     61.25000000    69.81000000    10.55000000
   O     60.79000000    70.86000000    10.10000000
   C     62.80000000    68.54000000     9.14000000
   C     63.42000000    69.74000000     8.46000000
   C     63.24000000    69.91000000     7.08000000
   C     64.19000000    70.61000000     9.24000000
   C     64.00000000    70.93000000     6.49000000
   C     64.83000000    71.67000000     8.59000000
   C     64.79000000    71.84000000     7.20000000
   H     61.10000000    69.35000000     7.56000000
   H     61.07000000    67.72000000    10.04000000
   H     62.82000000    67.80000000     8.34000000
   H     63.38000000    68.40000000    10.05000000
   H     62.73000000    69.20000000     6.44000000
   H     64.26000000    70.53000000    10.31000000
   H     63.77000000    71.06000000     5.44000000
   H     65.43000000    72.36000000     9.17000000
   H     65.35000000    72.59000000     6.65000000
   N     61.52000000    69.72000000    11.86000000
   C     62.12000000    68.61000000    12.56000000
   C     61.16000000    67.43000000    12.63000000
   O     59.98000000    67.53000000    12.28000000
   C     62.53000000    69.22000000    13.90000000
   C     61.45000000    70.27000000    14.16000000
   C     61.19000000    70.81000000    12.76000000
   H     63.07000000    68.28000000    12.15000000
   H     62.45000000    68.40000000    14.61000000
   H     63.53000000    69.66000000    13.86000000
   H     60.57000000    69.82000000    14.62000000
   H     61.92000000    71.01000000    14.80000000
   H     60.10000000    70.88000000    12.75000000
   H     61.67000000    71.73000000    12.43000000
   N     61.73000000    66.30000000    13.04000000
   C     61.06000000    65.01000000    13.05000000
   C     61.95000000    63.79000000    12.86000000
   O     61.78000000    62.78000000    13.55000000
   C     60.21000000    64.90000000    14.31000000
   C     60.88000000    65.26000000    15.63000000
   C     60.14000000    64.68000000    16.83000000
   O     59.66000000    65.51000000    17.63000000
   O     60.24000000    63.46000000    17.10000000
   H     62.67000000    66.37000000    13.40000000
   H     60.44000000    64.78000000    12.18000000
   H     59.90000000    63.86000000    14.36000000
   H     59.30000000    65.50000000    14.20000000
   H     60.91000000    66.35000000    15.67000000
   H     61.94000000    65.02000000    15.57000000
   N     62.94000000    63.82000000    11.97000000
   C     63.28000000    64.72000000    10.89000000
   H     64.30300000    64.52900000    10.56700000
   H     62.60000000    64.55800000    10.05400000
   H     63.19500000    65.75100000    11.23500000
   H     63.57000000    63.03000000    12.04000000
  Ca     51.96000000    64.25000000     6.56000000
   O     54.31000000    64.56000000     7.81000000
   H     54.52000000    64.49000000     8.75000000
   H     55.12000000    64.90000000     7.42000000
   O     52.50000000    66.92000000     6.50000000
   H     52.20000000    67.78000000     6.82000000
   H     52.89000000    67.10000000     5.65000000
   O     51.57000000    65.22000000     9.04000000
   H     50.75000000    65.45000000     9.49000000
   H     52.25000000    65.37000000     9.69000000

Ca 1.00



