%chk=loop2.apoCaM-CA-Ng.Init295.run12.water2.chk
%nprocshared=20
%mem=10GB
%nosave
#b3lyp/svp scf=(tight,noincore,xqc) Test 
#IOP(5/87=12) Density=Current Pop=(MK,readradii) iop(6/33=2) iop(6/42=6)

loop2.apoCaM-CA-Ng.Init295.run12.water2 

   -2  1 
   C     76.01000000    46.43000000    51.63000000
   C     75.30000000    47.34000000    50.64000000
   O     74.16000000    47.74000000    50.88000000
   H     76.92500000    46.91200000    51.97400000
   H     75.35800000    46.24000000    52.48200000
   H     76.25800000    45.48600000    51.14400000
   N     75.94000000    47.74000000    49.54000000
   C     75.58000000    48.70000000    48.52000000
   C     74.25000000    48.40000000    47.85000000
   O     73.76000000    49.29000000    47.15000000
   C     75.76000000    50.12000000    49.06000000
   C     76.32000000    51.15000000    48.09000000
   O     76.90000000    50.72000000    47.07000000
   O     76.12000000    52.38000000    48.26000000
   H     76.82000000    47.28000000    49.39000000
   H     76.32000000    48.57000000    47.73000000
   H     76.33000000    50.02000000    49.98000000
   H     74.83000000    50.59000000    49.37000000
   N     73.76000000    47.17000000    47.99000000
   C     72.48000000    46.74000000    47.45000000
   C     71.70000000    45.86000000    48.41000000
   O     72.25000000    45.13000000    49.23000000
   C     72.79000000    45.97000000    46.17000000
   H     74.29000000    46.53000000    48.56000000
   H     71.91000000    47.63000000    47.17000000
   H     73.49000000    46.51000000    45.53000000
   H     73.17000000    44.97000000    46.42000000
   H     71.88000000    45.85000000    45.60000000
   N     70.37000000    45.86000000    48.35000000
   C     69.50000000    46.74000000    47.59000000
   C     69.51000000    48.17000000    48.10000000
   O     69.69000000    48.36000000    49.30000000
   C     68.14000000    46.08000000    47.39000000
   C     67.41000000    45.67000000    48.66000000
   O     67.69000000    44.60000000    49.24000000
   O     66.47000000    46.38000000    49.07000000
   H     69.94000000    45.16000000    48.94000000
   H     69.91000000    46.93000000    46.59000000
   H     68.21000000    45.22000000    46.71000000
   H     67.56000000    46.81000000    46.83000000
   N     69.34000000    49.19000000    47.26000000
   C     69.05000000    50.55000000    47.66000000
   C     70.38000000    51.28000000    47.58000000
   O     70.72000000    51.55000000    46.43000000
   H     69.39000000    49.00000000    46.27000000
   H     68.73000000    50.61000000    48.70000000
   H     68.28000000    50.95000000    46.99000000
   N     71.01000000    51.76000000    48.65000000
   C     70.70000000    51.57000000    50.06000000
   C     71.97000000    51.51000000    50.90000000
   O     72.89000000    52.31000000    50.81000000
   C     69.80000000    52.75000000    50.40000000
   C     69.63000000    52.76000000    51.91000000
   N     69.02000000    51.65000000    52.35000000
   O     70.14000000    53.60000000    52.64000000
   H     71.87000000    52.29000000    48.55000000
   H     70.21000000    50.61000000    50.22000000
   H     68.79000000    52.62000000    50.00000000
   H     70.19000000    53.72000000    50.08000000
   H     68.39000000    51.12000000    51.76000000
   H     68.99000000    51.45000000    53.34000000
   N     72.08000000    50.61000000    51.88000000
   C     72.82000000    50.75000000    53.11000000
   C     72.29000000    50.05000000    54.35000000
   O     73.02000000    49.83000000    55.31000000
   H     71.40000000    49.85000000    51.84000000
   H     72.86000000    51.81000000    53.35000000
   H     73.87000000    50.53000000    52.91000000
   N     71.01000000    49.66000000    54.31000000
   C     70.27000000    49.12000000    55.43000000
   C     69.65000000    47.77000000    55.09000000
   O     68.93000000    47.60000000    54.12000000
   C     69.23000000    50.08000000    55.99000000
   C     69.75000000    51.25000000    56.83000000
   O     68.35000000    50.65000000    55.04000000
   H     70.51000000    49.75000000    53.44000000
   H     70.94000000    49.02000000    56.29000000
   H     68.68000000    49.48000000    56.72000000
   H     67.90000000    51.32000000    55.56000000
   H     70.20000000    52.02000000    56.22000000
   H     68.97000000    51.68000000    57.46000000
   H     70.59000000    50.90000000    57.44000000
   N     69.92000000    46.78000000    55.95000000
   C     69.65000000    45.38000000    55.69000000
   C     68.45000000    44.99000000    56.54000000
   O     68.32000000    45.46000000    57.67000000
   C     70.90000000    44.55000000    55.95000000
   C     72.03000000    45.11000000    55.10000000
   C     71.30000000    44.38000000    57.42000000
   C     71.84000000    45.12000000    53.58000000
   H     70.56000000    47.00000000    56.70000000
   H     69.27000000    45.15000000    54.69000000
   H     70.73000000    43.55000000    55.55000000
   H     72.96000000    44.61000000    55.39000000
   H     72.17000000    46.14000000    55.43000000
   H     71.27000000    45.41000000    57.77000000
   H     70.63000000    43.80000000    58.05000000
   H     72.35000000    44.10000000    57.46000000
   H     72.77000000    45.51000000    53.18000000
   H     71.77000000    44.09000000    53.25000000
   H     70.97000000    45.70000000    53.25000000
   N     67.57000000    44.17000000    55.97000000
   C     66.27000000    43.78000000    56.48000000
   C     66.09000000    42.28000000    56.26000000
   O     66.53000000    41.70000000    55.27000000
   C     65.17000000    44.64000000    55.88000000
   C     65.34000000    44.96000000    54.40000000
   O     65.77000000    46.08000000    54.04000000
   O     65.06000000    44.14000000    53.50000000
   H     67.79000000    43.85000000    55.03000000
   H     66.25000000    43.88000000    57.57000000
   H     65.13000000    45.57000000    56.44000000
   H     64.18000000    44.21000000    56.05000000
   N     65.57000000    41.52000000    57.23000000
   C     65.41000000    40.08000000    57.21000000
   C     66.71000000    39.32000000    57.01000000
   O     67.64000000    39.58000000    57.78000000
   C     64.70000000    39.55000000    58.45000000
   C     64.35000000    38.10000000    58.17000000
   C     65.14000000    37.02000000    58.59000000
   C     63.25000000    37.86000000    57.34000000
   C     64.76000000    35.71000000    58.28000000
   C     62.90000000    36.55000000    57.01000000
   C     63.73000000    35.47000000    57.35000000
   H     65.45000000    42.02000000    58.10000000
   H     64.81000000    39.86000000    56.32000000
   H     63.76000000    40.11000000    58.56000000
   H     65.26000000    39.58000000    59.38000000
   H     66.06000000    37.18000000    59.13000000
   H     62.71000000    38.70000000    56.94000000
   H     65.48000000    34.97000000    58.59000000
   H     62.00000000    36.40000000    56.43000000
   H     63.49000000    34.47000000    57.03000000
   N     66.94000000    38.40000000    56.07000000
   C     68.13000000    37.60000000    55.92000000
   C     69.33000000    38.38000000    55.40000000
   O     70.44000000    37.85000000    55.41000000
   C     67.79000000    36.46000000    54.97000000
   C     66.46000000    36.82000000    54.31000000
   C     66.08000000    38.16000000    54.93000000
   H     68.42000000    37.05000000    56.82000000
   H     68.52000000    36.36000000    54.17000000
   H     67.73000000    35.49000000    55.46000000
   H     66.71000000    36.93000000    53.25000000
   H     65.72000000    36.03000000    54.46000000
   H     66.35000000    38.99000000    54.28000000
   H     65.03000000    38.24000000    55.20000000
   N     69.17000000    39.66000000    55.06000000
   C     70.15000000    40.60000000    54.58000000
   C     71.40000000    40.74000000    55.44000000
   O     72.31000000    41.46000000    55.02000000
   C     69.48000000    41.88000000    54.10000000
   C     68.54000000    41.59000000    52.93000000
   C     67.77000000    42.83000000    52.50000000
   O     68.12000000    43.98000000    52.86000000
   O     66.80000000    42.63000000    51.74000000
   H     68.28000000    40.05000000    55.34000000
   H     70.54000000    40.10000000    53.70000000
   H     70.26000000    42.54000000    53.71000000
   H     68.94000000    42.38000000    54.91000000
   H     67.79000000    40.84000000    53.18000000
   H     69.12000000    41.09000000    52.15000000
   N     71.44000000    40.24000000    56.68000000
   C     72.60000000    40.35000000    57.53000000
   H     73.38600000    40.89000000    57.00300000
   H     72.33500000    40.89100000    58.43900000
   H     72.95600000    39.35300000    57.79000000
   H     70.68000000    39.66000000    57.02000000
  Ca     66.30000000    45.29000000    51.45000000
   O     68.48000000    46.93000000    51.56000000
   H     68.99000000    47.12000000    50.78000000
   H     69.08000000    47.08000000    52.29000000
   O     64.54000000    43.73000000    50.19000000
   H     64.95000000    42.87000000    50.08000000
   H     64.34000000    44.01000000    49.29000000

Ca 1.00



