%chk=loop2.holoCaM-CaMKII.run78.water1.chk
%nprocshared=20
%mem=10GB
%nosave
#b3lyp/svp scf=(tight,noincore,xqc) Test 
#IOP(5/87=12) Density=Current Pop=(MK,readradii) iop(6/33=2) iop(6/42=6)

loop2.holoCaM-CaMKII.run78.water1 

   -2  1 
   C     19.30000000    57.04000000    97.94800000
   C     19.39000000    58.38000000    97.22800000
   O     20.13000000    59.23000000    97.72800000
   H     18.26500000    56.69800000    97.95000000
   H     19.92200000    56.30800000    97.43400000
   H     19.64700000    57.15500000    98.97500000
   N     18.69000000    58.67000000    96.12800000
   C     18.86000000    59.95000000    95.47800000
   C     18.39000000    61.13000000    96.31800000
   O     17.23000000    61.16000000    96.73800000
   C     18.09000000    59.87000000    94.16800000
   C     18.59000000    60.91000000    93.17800000
   O     19.53000000    61.67000000    93.47800000
   O     17.99000000    61.00000000    92.07800000
   H     17.98000000    58.01000000    95.85800000
   H     19.93000000    60.03000000    95.27800000
   H     17.01000000    59.79000000    94.28800000
   H     18.26000000    58.89000000    93.72800000
   N     19.30000000    62.10000000    96.44800000
   C     19.03000000    63.43000000    96.97800000
   C     18.73000000    64.44000000    95.87800000
   O     18.31000000    65.49000000    96.33800000
   C     20.14000000    63.87000000    97.92800000
   H     20.18000000    61.93000000    95.98800000
   H     18.17000000    63.33000000    97.64800000
   H     21.12000000    64.03000000    97.47800000
   H     19.84000000    64.85000000    98.30800000
   H     20.30000000    63.14000000    98.70800000
   N     18.96000000    64.29000000    94.56800000
   C     18.97000000    65.38000000    93.61800000
   C     18.35000000    65.21000000    92.23800000
   O     18.32000000    66.24000000    91.55800000
   C     20.40000000    65.89000000    93.54800000
   C     21.32000000    64.86000000    92.91800000
   O     20.85000000    64.04000000    92.09800000
   O     22.45000000    64.53000000    93.33800000
   H     19.31000000    63.39000000    94.25800000
   H     18.37000000    66.19000000    94.05800000
   H     20.86000000    66.19000000    94.48800000
   H     20.49000000    66.82000000    92.97800000
   N     18.15000000    63.99000000    91.74800000
   C     17.52000000    63.66000000    90.48800000
   C     18.48000000    63.61000000    89.30800000
   O     17.93000000    63.49000000    88.21800000
   H     18.39000000    63.20000000    92.33800000
   H     16.77000000    64.43000000    90.29800000
   H     17.09000000    62.66000000    90.58800000
   N     19.80000000    63.54000000    89.50800000
   C     20.82000000    63.58000000    88.47800000
   C     21.06000000    62.27000000    87.74800000
   O     21.99000000    62.00000000    86.98800000
   C     22.05000000    64.27000000    89.06800000
   C     23.01000000    63.48000000    89.93800000
   N     24.05000000    64.05000000    90.55800000
   O     22.81000000    62.29000000    90.17800000
   H     20.08000000    63.70000000    90.46800000
   H     20.48000000    64.33000000    87.75800000
   H     21.64000000    65.10000000    89.65800000
   H     22.60000000    64.79000000    88.28800000
   H     24.35000000    64.94000000    90.19800000
   H     24.57000000    63.47000000    91.20800000
   N     20.15000000    61.30000000    87.87800000
   C     20.20000000    59.99000000    87.24800000
   C     21.27000000    59.02000000    87.73800000
   O     21.38000000    57.93000000    87.18800000
   H     19.26000000    61.53000000    88.28800000
   H     20.38000000    60.18000000    86.18800000
   H     19.25000000    59.48000000    87.41800000
   N     22.20000000    59.43000000    88.59800000
   C     23.44000000    58.81000000    89.04800000
   C     23.61000000    58.83000000    90.55800000
   O     23.13000000    59.74000000    91.23800000
   C     24.65000000    59.50000000    88.42800000
   C     24.73000000    59.27000000    86.91800000
   O     24.58000000    60.87000000    88.71800000
   H     22.15000000    60.36000000    88.98800000
   H     23.44000000    57.79000000    88.66800000
   H     25.52000000    59.09000000    88.94800000
   H     23.79000000    61.06000000    89.23800000
   H     24.44000000    58.26000000    86.62800000
   H     23.98000000    59.82000000    86.35800000
   H     25.75000000    59.45000000    86.56800000
   N     24.48000000    57.98000000    91.10800000
   C     24.84000000    57.97000000    92.50800000
   C     26.01000000    58.91000000    92.73800000
   O     27.06000000    58.68000000    92.13800000
   C     25.21000000    56.59000000    93.05800000
   C     24.41000000    55.46000000    92.41800000
   C     25.13000000    56.52000000    94.57800000
   C     24.76000000    54.03000000    92.82800000
   H     24.86000000    57.33000000    90.42800000
   H     23.95000000    58.24000000    93.07800000
   H     26.25000000    56.43000000    92.77800000
   H     24.36000000    55.54000000    91.32800000
   H     23.38000000    55.61000000    92.71800000
   H     25.59000000    57.41000000    94.99800000
   H     24.11000000    56.43000000    94.93800000
   H     25.66000000    55.67000000    95.00800000
   H     24.41000000    53.30000000    92.09800000
   H     25.82000000    53.89000000    92.60800000
   H     24.56000000    53.85000000    93.87800000
   N     25.88000000    59.92000000    93.59800000
   C     26.93000000    60.80000000    94.08800000
   C     27.55000000    60.18000000    95.32800000
   O     27.07000000    59.17000000    95.83800000
   C     26.40000000    62.22000000    94.23800000
   C     25.67000000    62.82000000    93.03800000
   O     24.55000000    62.39000000    92.68800000
   O     26.22000000    63.79000000    92.47800000
   H     24.96000000    60.10000000    93.97800000
   H     27.67000000    60.77000000    93.28800000
   H     27.17000000    62.92000000    94.57800000
   H     25.62000000    62.22000000    94.99800000
   N     28.69000000    60.71000000    95.76800000
   C     29.46000000    60.16000000    96.86800000
   C     28.80000000    60.33000000    98.22800000
   O     28.72000000    59.29000000    98.88800000
   C     30.83000000    60.84000000    96.81800000
   C     31.85000000    60.41000000    97.83800000
   C     31.97000000    61.03000000    99.08800000
   C     32.67000000    59.31000000    97.55800000
   C     32.84000000    60.52000000   100.06800000
   C     33.61000000    58.86000000    98.48800000
   C     33.71000000    59.47000000    99.74800000
   H     29.13000000    61.50000000    95.30800000
   H     29.65000000    59.11000000    96.69800000
   H     30.54000000    61.87000000    97.04800000
   H     31.32000000    60.67000000    95.85800000
   H     31.35000000    61.87000000    99.35800000
   H     32.73000000    58.89000000    96.56800000
   H     32.93000000    60.93000000   101.06800000
   H     34.35000000    58.16000000    98.13800000
   H     34.46000000    59.11000000   100.43800000
   N     28.07000000    61.39000000    98.58800000
   C     27.14000000    61.37000000    99.69800000
   C     26.07000000    60.27000000    99.67800000
   O     25.62000000    59.87000000   100.74800000
   C     26.40000000    62.70000000    99.64800000
   C     27.30000000    63.70000000    98.91800000
   C     28.13000000    62.74000000    98.05800000
   H     27.73000000    61.29000000   100.60800000
   H     25.52000000    62.62000000    99.01800000
   H     26.14000000    63.08000000   100.63800000
   H     26.71000000    64.43000000    98.36800000
   H     27.89000000    64.22000000    99.66800000
   H     27.78000000    62.67000000    97.02800000
   H     29.14000000    63.15000000    98.02800000
   N     25.66000000    59.79000000    98.50800000
   C     24.58000000    58.85000000    98.24800000
   C     25.11000000    57.42000000    98.27800000
   O     24.50000000    56.52000000    98.84800000
   C     23.84000000    59.28000000    96.98800000
   C     23.25000000    60.68000000    96.92800000
   C     22.66000000    60.92000000    95.53800000
   O     21.99000000    61.96000000    95.32800000
   O     22.96000000    60.22000000    94.55800000
   H     26.14000000    60.06000000    97.66800000
   H     23.83000000    58.94000000    99.02800000
   H     23.05000000    58.55000000    96.80800000
   H     24.59000000    59.10000000    96.20800000
   H     24.02000000    61.38000000    97.23800000
   H     22.46000000    60.79000000    97.67800000
   N     26.29000000    57.20000000    97.69800000
   C     26.91000000    55.90000000    97.87800000
   H     27.86200000    56.02100000    98.39500000
   H     26.25400000    55.26300000    98.47100000
   H     27.08100000    55.44000000    96.90500000
   H     26.72000000    57.95000000    97.17800000
  Ca     22.12000000    61.83000000    92.66000000
   O     20.45000000    60.26000000    90.92000000
   H     20.66000000    59.41000000    91.30000000
   H     19.49000000    60.31000000    90.93000000

Ca 1.00



