%chk=loop3.holoCaM.run81.water1.chk
%nprocshared=20
%mem=10GB
%nosave
#b3lyp/svp scf=(tight,noincore,xqc) Test 
#IOP(5/87=12) Density=Current Pop=(MK,readradii) iop(6/33=2) iop(6/42=6)

loop3.holoCaM.run81.water1 

   0  1 
   C     71.82000000    55.47000000    31.28000000
   C     72.69000000    55.65000000    32.51000000
   O     73.65000000    54.89000000    32.61000000
   H     70.93000000    56.09300000    31.37100000
   H     72.38000000    55.76400000    30.39200000
   H     71.52400000    54.42500000    31.19300000
   N     72.38000000    56.55000000    33.45000000
   C     72.97000000    56.74000000    34.75000000
   C     72.63000000    55.66000000    35.77000000
   O     71.52000000    55.14000000    35.84000000
   C     72.69000000    58.15000000    35.27000000
   C     73.73000000    58.62000000    36.28000000
   O     74.02000000    57.96000000    37.30000000
   O     74.37000000    59.66000000    36.05000000
   H     71.62000000    57.16000000    33.17000000
   H     74.04000000    56.65000000    34.53000000
   H     71.75000000    58.27000000    35.80000000
   H     72.68000000    58.88000000    34.46000000
   N     73.66000000    55.23000000    36.51000000
   C     73.56000000    54.15000000    37.48000000
   C     72.91000000    54.56000000    38.79000000
   O     72.36000000    53.69000000    39.47000000
   C     74.93000000    53.51000000    37.64000000
   C     75.02000000    52.21000000    38.45000000
   C     76.37000000    51.53000000    38.59000000
   C     76.26000000    50.22000000    39.37000000
   N     77.51000000    49.46000000    39.23000000
   H     74.51000000    55.75000000    36.36000000
   H     72.86000000    53.49000000    36.97000000
   H     75.55000000    54.25000000    38.15000000
   H     75.36000000    53.35000000    36.66000000
   H     74.28000000    51.48000000    38.12000000
   H     74.79000000    52.51000000    39.47000000
   H     76.96000000    52.23000000    39.18000000
   H     76.77000000    51.30000000    37.60000000
   H     75.42000000    49.58000000    39.13000000
   H     76.07000000    50.53000000    40.40000000
   H     78.37000000    50.00000000    39.20000000
   H     77.53000000    48.76000000    39.95000000
   H     77.57000000    49.10000000    38.29000000
   N     73.16000000    55.81000000    39.17000000
   C     73.08000000    56.44000000    40.47000000
   C     72.30000000    57.74000000    40.50000000
   O     71.64000000    58.07000000    41.49000000
   C     74.53000000    56.64000000    40.92000000
   C     75.38000000    57.47000000    39.96000000
   O     76.28000000    56.94000000    39.29000000
   O     75.25000000    58.72000000    39.98000000
   H     73.63000000    56.38000000    38.47000000
   H     72.66000000    55.69000000    41.14000000
   H     75.04000000    55.68000000    40.99000000
   H     74.46000000    57.09000000    41.91000000
   N     72.19000000    58.41000000    39.35000000
   C     71.34000000    59.54000000    39.02000000
   C     72.02000000    60.90000000    38.93000000
   O     71.40000000    61.82000000    38.40000000
   H     72.90000000    58.16000000    38.68000000
   H     70.50000000    59.73000000    39.69000000
   H     70.96000000    59.37000000    38.02000000
   N     73.32000000    61.04000000    39.18000000
   C     73.85000000    62.39000000    39.31000000
   C     73.93000000    63.16000000    38.00000000
   O     74.17000000    64.37000000    38.04000000
   C     75.22000000    62.38000000    39.97000000
   C     76.40000000    61.87000000    39.16000000
   N     77.63000000    62.21000000    39.56000000
   O     76.28000000    61.22000000    38.12000000
   H     73.85000000    60.21000000    39.39000000
   H     73.23000000    62.95000000    40.00000000
   H     75.22000000    61.83000000    40.91000000
   H     75.44000000    63.39000000    40.30000000
   H     77.80000000    62.66000000    40.44000000
   H     78.36000000    62.01000000    38.90000000
   N     73.89000000    62.45000000    36.87000000
   C     73.86000000    62.94000000    35.51000000
   C     75.26000000    63.02000000    34.91000000
   O     75.47000000    63.88000000    34.06000000
   H     73.62000000    61.48000000    36.93000000
   H     73.45000000    63.95000000    35.43000000
   H     73.31000000    62.20000000    34.91000000
   N     76.17000000    62.17000000    35.38000000
   C     77.54000000    62.11000000    34.89000000
   C     78.03000000    60.69000000    34.66000000
   O     78.12000000    59.89000000    35.59000000
   C     78.45000000    62.87000000    35.85000000
   C     78.24000000    64.36000000    35.98000000
   C     79.15000000    65.26000000    35.43000000
   C     77.12000000    64.92000000    36.61000000
   C     79.00000000    66.65000000    35.48000000
   C     76.91000000    66.30000000    36.67000000
   C     77.88000000    67.18000000    36.15000000
   O     77.70000000    68.53000000    36.19000000
   H     75.97000000    61.50000000    36.11000000
   H     77.58000000    62.62000000    33.92000000
   H     79.50000000    62.73000000    35.57000000
   H     78.38000000    62.48000000    36.87000000
   H     79.90000000    64.90000000    34.74000000
   H     76.39000000    64.32000000    37.13000000
   H     79.70000000    67.26000000    34.93000000
   H     76.01000000    66.72000000    37.10000000
   H     76.92000000    68.81000000    36.68000000
   N     78.35000000    60.36000000    33.41000000
   C     78.55000000    58.99000000    32.99000000
   C     79.98000000    58.81000000    32.48000000
   O     80.33000000    59.42000000    31.47000000
   C     77.57000000    58.65000000    31.87000000
   C     76.18000000    58.62000000    32.51000000
   C     77.83000000    57.26000000    31.30000000
   C     75.31000000    59.87000000    32.45000000
   H     78.28000000    61.05000000    32.67000000
   H     78.43000000    58.30000000    33.82000000
   H     77.52000000    59.40000000    31.08000000
   H     76.28000000    58.31000000    33.55000000
   H     75.66000000    57.77000000    32.08000000
   H     78.68000000    57.35000000    30.61000000
   H     78.16000000    56.53000000    32.03000000
   H     77.01000000    56.86000000    30.71000000
   H     75.49000000    60.51000000    33.32000000
   H     75.51000000    60.46000000    31.55000000
   H     74.27000000    59.57000000    32.46000000
   N     80.76000000    57.95000000    33.14000000
   C     82.07000000    57.52000000    32.70000000
   C     81.93000000    56.31000000    31.78000000
   O     80.88000000    55.68000000    31.68000000
   C     82.91000000    57.02000000    33.88000000
   O     82.35000000    56.05000000    34.73000000
   H     80.38000000    57.43000000    33.91000000
   H     82.48000000    58.34000000    32.12000000
   H     83.23000000    57.94000000    34.38000000
   H     83.82000000    56.63000000    33.43000000
   H     81.85000000    56.46000000    35.43000000
   N     83.04000000    55.95000000    31.14000000
   C     83.01000000    54.91000000    30.13000000
   C     82.64000000    53.57000000    30.73000000
   O     82.14000000    52.68000000    30.04000000
   C     84.33000000    54.94000000    29.36000000
   H     83.91000000    56.37000000    31.42000000
   H     82.16000000    55.10000000    29.47000000
   H     85.09000000    55.68000000    29.58000000
   H     84.92000000    54.04000000    29.54000000
   H     84.07000000    55.02000000    28.30000000
   N     82.91000000    53.38000000    32.02000000
   C     82.58000000    52.22000000    32.84000000
   C     81.14000000    52.28000000    33.33000000
   O     80.41000000    51.30000000    33.19000000
   C     83.50000000    52.31000000    34.06000000
   H     83.60000000    54.05000000    32.33000000
   H     82.84000000    51.31000000    32.30000000
   H     83.15000000    51.70000000    34.89000000
   H     84.45000000    51.90000000    33.73000000
   H     83.61000000    53.34000000    34.39000000
   N     80.63000000    53.45000000    33.70000000
   C     79.20000000    53.62000000    33.87000000
   C     78.35000000    53.33000000    32.65000000
   O     77.28000000    52.73000000    32.71000000
   C     78.93000000    54.97000000    34.54000000
   C     77.50000000    54.98000000    35.08000000
   C     77.28000000    56.28000000    35.84000000
   O     76.10000000    56.66000000    36.06000000
   O     78.20000000    56.97000000    36.34000000
   H     81.25000000    54.25000000    33.61000000
   H     78.89000000    52.88000000    34.61000000
   H     79.04000000    55.77000000    33.81000000
   H     79.58000000    54.98000000    35.41000000
   H     77.39000000    54.14000000    35.75000000
   H     76.76000000    54.88000000    34.28000000
   N     78.78000000    53.78000000    31.47000000
   C     78.19000000    53.39000000    30.20000000
   H     77.29400000    53.98400000    30.01800000
   H     78.90800000    53.56100000    29.39800000
   H     77.92400000    52.33300000    30.23100000
   H     79.56000000    54.41000000    31.51000000
  Ca     76.52000000    58.64000000    37.47000000
   O     79.05000000    59.59000000    38.06000000
   H     79.46000000    59.97000000    37.29000000
   H     79.74000000    59.59000000    38.73000000

Ca 1.00



