%chk=loop1.apoCaM-CA-Ng.Init31.run42.water4.chk
%nprocshared=20
%mem=10GB
%nosave
#b3lyp/svp scf=(tight,noincore,xqc) Test 
#IOP(5/87=12) Density=Current Pop=(MK,readradii) iop(6/33=2) iop(6/42=6)

loop1.apoCaM-CA-Ng.Init31.run42.water4 

   0  1 
   C     90.51000000    74.45000000    19.08000000
   C     90.84000000    75.86000000    18.62000000
   O     91.78000000    76.51000000    19.05000000
   H     89.52900000    74.16500000    18.70000000
   H     91.26200000    73.75800000    18.70000000
   H     90.50100000    74.41500000    20.16900000
   N     90.11000000    76.23000000    17.56000000
   C     90.43000000    77.37000000    16.73000000
   C     89.19000000    78.00000000    16.12000000
   O     88.12000000    77.40000000    16.09000000
   C     91.51000000    76.93000000    15.74000000
   C     92.37000000    78.05000000    15.17000000
   O     92.27000000    79.25000000    15.51000000
   O     93.25000000    77.73000000    14.34000000
   H     89.37000000    75.61000000    17.26000000
   H     90.85000000    78.17000000    17.34000000
   H     91.07000000    76.35000000    14.94000000
   H     92.19000000    76.19000000    16.18000000
   N     89.28000000    79.20000000    15.54000000
   C     88.24000000    79.90000000    14.80000000
   C     87.66000000    79.19000000    13.59000000
   O     86.44000000    79.26000000    13.45000000
   C     88.79000000    81.28000000    14.44000000
   C     87.91000000    82.15000000    13.55000000
   C     86.60000000    82.68000000    14.13000000
   C     86.21000000    83.95000000    13.38000000
   N     86.08000000    83.82000000    11.92000000
   H     90.11000000    79.74000000    15.72000000
   H     87.43000000    80.05000000    15.52000000
   H     89.82000000    81.18000000    14.09000000
   H     89.04000000    81.85000000    15.34000000
   H     87.52000000    81.58000000    12.71000000
   H     88.49000000    82.94000000    13.07000000
   H     86.66000000    83.07000000    15.15000000
   H     85.84000000    81.91000000    14.08000000
   H     87.03000000    84.64000000    13.58000000
   H     85.32000000    84.41000000    13.81000000
   H     85.51000000    83.00000000    11.78000000
   H     85.83000000    84.69000000    11.48000000
   H     86.95000000    83.53000000    11.48000000
   N     88.39000000    78.53000000    12.69000000
   C     89.83000000    78.58000000    12.51000000
   C     90.30000000    77.19000000    12.09000000
   O     89.56000000    76.37000000    11.56000000
   C     90.20000000    79.57000000    11.41000000
   C     91.60000000    80.16000000    11.47000000
   O     91.81000000    81.09000000    10.66000000
   O     92.46000000    79.82000000    12.30000000
   H     87.82000000    78.03000000    12.03000000
   H     90.37000000    78.85000000    13.42000000
   H     89.41000000    80.32000000    11.50000000
   H     90.14000000    79.14000000    10.41000000
   N     91.59000000    76.86000000    12.27000000
   C     92.20000000    75.59000000    11.95000000
   C     93.71000000    75.71000000    11.87000000
   O     94.38000000    74.79000000    12.34000000
   H     92.28000000    77.52000000    12.60000000
   H     91.94000000    75.28000000    10.94000000
   H     91.97000000    74.78000000    12.65000000
   N     94.25000000    76.68000000    11.13000000
   C     95.63000000    76.58000000    10.72000000
   C     96.01000000    75.56000000     9.65000000
   O     95.29000000    75.40000000     8.66000000
   C     96.27000000    77.95000000    10.50000000
   C     96.00000000    78.87000000    11.68000000
   O     96.29000000    78.48000000    12.83000000
   O     95.46000000    79.98000000    11.47000000
   H     93.66000000    77.39000000    10.73000000
   H     96.11000000    76.34000000    11.67000000
   H     95.88000000    78.43000000     9.61000000
   H     97.33000000    77.77000000    10.30000000
   N     97.04000000    74.71000000     9.71000000
   C     97.87000000    74.42000000    10.86000000
   C     99.08000000    75.35000000    10.93000000
   O     99.64000000    75.50000000    12.02000000
   H     97.10000000    73.99000000     9.00000000
   H     98.28000000    73.41000000    10.75000000
   H     97.24000000    74.48000000    11.74000000
   N     99.47000000    76.04000000     9.86000000
   C    100.79000000    76.58000000     9.61000000
   C    101.88000000    75.53000000     9.38000000
   O    102.71000000    75.21000000    10.23000000
   C    101.21000000    77.72000000    10.53000000
   C    100.17000000    78.84000000    10.54000000
   O    102.47000000    78.29000000    10.26000000
   H     98.91000000    75.93000000     9.04000000
   H    100.76000000    77.10000000     8.65000000
   H    101.32000000    77.42000000    11.57000000
   H    103.05000000    77.83000000    10.87000000
   H     99.74000000    79.06000000     9.56000000
   H     99.33000000    78.45000000    11.11000000
   H    100.53000000    79.73000000    11.05000000
   N    101.64000000    74.85000000     8.26000000
   C    102.33000000    73.72000000     7.67000000
   C    103.79000000    73.98000000     7.32000000
   O    104.18000000    73.74000000     6.18000000
   C    102.03000000    72.44000000     8.45000000
   C    100.55000000    72.10000000     8.27000000
   C    102.83000000    71.24000000     7.93000000
   C    100.01000000    71.17000000     9.35000000
   H    100.88000000    75.20000000     7.69000000
   H    101.85000000    73.64000000     6.70000000
   H    102.17000000    72.56000000     9.52000000
   H    100.37000000    71.65000000     7.29000000
   H     99.85000000    72.92000000     8.19000000
   H    102.74000000    70.31000000     8.48000000
   H    102.59000000    71.03000000     6.89000000
   H    103.87000000    71.54000000     8.04000000
   H    100.07000000    71.60000000    10.35000000
   H     98.94000000    71.01000000     9.25000000
   H    100.55000000    70.24000000     9.21000000
   N    104.61000000    74.51000000     8.23000000
   C    105.98000000    74.89000000     7.99000000
   C    106.93000000    74.17000000     8.94000000
   O    106.50000000    73.55000000     9.91000000
   C    106.24000000    76.39000000     7.96000000
   C    105.69000000    77.10000000     9.19000000
   O    105.70000000    76.93000000     6.78000000
   H    104.23000000    74.64000000     9.16000000
   H    106.26000000    74.58000000     6.98000000
   H    107.31000000    76.53000000     8.12000000
   H    106.38000000    77.53000000     6.46000000
   H    104.62000000    77.15000000     9.03000000
   H    105.91000000    76.56000000    10.11000000
   H    106.08000000    78.11000000     9.38000000
   N    108.23000000    74.33000000     8.66000000
   C    109.26000000    74.10000000     9.65000000
   C    109.11000000    75.00000000    10.87000000
   O    108.74000000    76.15000000    10.67000000
   C    110.69000000    74.21000000     9.13000000
   C    111.05000000    73.32000000     7.94000000
   O    111.17000000    75.50000000     8.81000000
   H    108.43000000    74.92000000     7.87000000
   H    109.08000000    73.07000000     9.97000000
   H    111.37000000    73.84000000     9.91000000
   H    112.03000000    75.57000000     9.22000000
   H    110.32000000    73.39000000     7.14000000
   H    112.00000000    73.70000000     7.55000000
   H    111.19000000    72.30000000     8.28000000
   N    109.28000000    74.53000000    12.11000000
   C    109.41000000    75.34000000    13.31000000
   C    108.35000000    76.43000000    13.40000000
   O    108.55000000    77.63000000    13.22000000
   C    110.86000000    75.78000000    13.45000000
   C    111.91000000    74.69000000    13.27000000
   C    111.78000000    73.60000000    14.33000000
   C    111.64000000    74.14000000    15.75000000
   N    111.55000000    73.09000000    16.77000000
   H    109.60000000    73.58000000    12.11000000
   H    109.22000000    74.78000000    14.23000000
   H    110.86000000    76.13000000    14.48000000
   H    110.97000000    76.57000000    12.69000000
   H    112.93000000    75.10000000    13.26000000
   H    111.85000000    74.15000000    12.32000000
   H    112.62000000    72.90000000    14.33000000
   H    110.87000000    73.05000000    14.08000000
   H    110.81000000    74.82000000    15.90000000
   H    112.58000000    74.66000000    15.95000000
   H    110.76000000    72.46000000    16.74000000
   H    112.34000000    72.47000000    16.66000000
   H    111.46000000    73.53000000    17.68000000
   N    107.12000000    75.93000000    13.49000000
   C    105.91000000    76.72000000    13.58000000
   C    104.75000000    76.16000000    12.77000000
   O    103.94000000    77.03000000    12.45000000
   C    105.56000000    77.00000000    15.03000000
   C    106.43000000    78.02000000    15.76000000
   C    106.19000000    78.13000000    17.26000000
   O    107.10000000    77.78000000    18.04000000
   O    105.17000000    78.69000000    17.70000000
   H    107.09000000    74.92000000    13.56000000
   H    106.11000000    77.69000000    13.12000000
   H    105.61000000    76.01000000    15.48000000
   H    104.55000000    77.44000000    15.07000000
   H    106.17000000    79.00000000    15.35000000
   H    107.47000000    77.73000000    15.60000000
   N    104.56000000    74.89000000    12.39000000
   C    105.20000000    73.68000000    12.85000000
   H    106.13900000    73.93100000    13.34400000
   H    104.54500000    73.16700000    13.55500000
   H    105.40000000    73.02800000    12.00000000
   H    103.87000000    74.75000000    11.67000000
  Ca     94.37000000    80.13000000    13.98000000
   O     94.04000000    81.89000000    15.85000000
   H     94.28000000    81.81000000    16.78000000
   H     94.16000000    82.82000000    15.65000000
   O     95.78000000    78.70000000    15.99000000
   H     95.33000000    78.08000000    16.56000000
   H     96.44000000    79.11000000    16.55000000
   O     96.51000000    81.51000000    14.52000000
   H     96.91000000    82.35000000    14.30000000
   H     97.26000000    80.94000000    14.71000000
   O     93.81000000    82.43000000    12.34000000
   H     93.62000000    82.11000000    11.45000000
   H     94.20000000    83.29000000    12.20000000

Ca 1.00



