%chk=loop1.apoCaM-CA-Ng.Init31.run77.water4.chk
%nprocshared=20
%mem=10GB
%nosave
#b3lyp/svp scf=(tight,noincore,xqc) Test 
#IOP(5/87=12) Density=Current Pop=(MK,readradii) iop(6/33=2) iop(6/42=6)

loop1.apoCaM-CA-Ng.Init31.run77.water4 

   0  1 
   C     63.78000000    34.28000000    41.00000000
   C     62.69000000    33.48000000    40.31000000
   O     61.80000000    34.05000000    39.68000000
   H     64.63400000    34.38200000    40.33100000
   H     63.39900000    35.26900000    41.25500000
   H     64.09100000    33.76400000    41.90800000
   N     62.80000000    32.15000000    40.37000000
   C     62.06000000    31.22000000    39.53000000
   C     61.94000000    29.82000000    40.10000000
   O     62.63000000    29.55000000    41.08000000
   C     62.65000000    31.28000000    38.12000000
   C     61.66000000    30.78000000    37.08000000
   O     60.52000000    30.37000000    37.42000000
   O     61.90000000    30.71000000    35.86000000
   H     63.53000000    31.71000000    40.92000000
   H     61.07000000    31.65000000    39.60000000
   H     63.52000000    30.63000000    38.12000000
   H     63.05000000    32.25000000    37.82000000
   N     61.07000000    28.95000000    39.58000000
   C     60.67000000    27.71000000    40.22000000
   C     61.60000000    26.54000000    39.94000000
   O     61.59000000    25.66000000    40.80000000
   C     59.26000000    27.43000000    39.69000000
   C     58.23000000    28.41000000    40.24000000
   C     57.77000000    28.03000000    41.64000000
   C     56.87000000    29.08000000    42.29000000
   N     55.45000000    28.87000000    41.99000000
   H     60.48000000    29.37000000    38.88000000
   H     60.78000000    27.96000000    41.27000000
   H     59.01000000    26.44000000    40.09000000
   H     59.16000000    27.56000000    38.61000000
   H     57.30000000    28.45000000    39.68000000
   H     58.69000000    29.40000000    40.26000000
   H     58.67000000    28.12000000    42.25000000
   H     57.21000000    27.09000000    41.63000000
   H     57.20000000    30.02000000    41.84000000
   H     56.98000000    29.11000000    43.37000000
   H     55.46000000    28.87000000    40.98000000
   H     55.06000000    28.02000000    42.37000000
   H     54.87000000    29.60000000    42.37000000
   N     62.33000000    26.31000000    38.85000000
   C     62.26000000    26.82000000    37.50000000
   C     63.63000000    27.04000000    36.87000000
   O     64.61000000    26.60000000    37.46000000
   C     61.26000000    25.98000000    36.70000000
   C     60.89000000    26.64000000    35.38000000
   O     60.92000000    27.87000000    35.21000000
   O     60.44000000    25.89000000    34.49000000
   H     63.02000000    25.58000000    38.99000000
   H     61.78000000    27.79000000    37.58000000
   H     60.35000000    25.86000000    37.29000000
   H     61.72000000    25.02000000    36.47000000
   N     63.76000000    27.64000000    35.68000000
   C     64.91000000    27.64000000    34.81000000
   C     65.10000000    28.97000000    34.09000000
   O     65.46000000    29.94000000    34.76000000
   H     62.90000000    28.03000000    35.32000000
   H     64.72000000    26.95000000    33.99000000
   H     65.81000000    27.44000000    35.39000000
   N     64.72000000    29.03000000    32.82000000
   C     64.66000000    30.20000000    31.97000000
   C     65.82000000    30.03000000    30.99000000
   O     66.17000000    28.92000000    30.62000000
   C     63.29000000    30.37000000    31.32000000
   C     62.09000000    30.21000000    32.24000000
   O     61.63000000    31.23000000    32.81000000
   O     61.47000000    29.13000000    32.39000000
   H     64.11000000    28.27000000    32.53000000
   H     64.87000000    31.05000000    32.62000000
   H     63.32000000    29.64000000    30.51000000
   H     63.36000000    31.38000000    30.90000000
   N     66.43000000    31.09000000    30.46000000
   C     66.15000000    32.50000000    30.66000000
   C     65.58000000    33.19000000    29.43000000
   O     65.32000000    34.40000000    29.40000000
   H     67.27000000    30.90000000    29.93000000
   H     67.13000000    32.93000000    30.88000000
   H     65.51000000    32.63000000    31.53000000
   N     65.44000000    32.48000000    28.31000000
   C     65.20000000    32.94000000    26.96000000
   C     66.35000000    33.60000000    26.22000000
   O     66.34000000    34.77000000    25.84000000
   C     63.84000000    33.61000000    26.77000000
   C     62.73000000    32.74000000    27.37000000
   O     63.61000000    33.81000000    25.40000000
   H     65.74000000    31.52000000    28.35000000
   H     65.01000000    32.03000000    26.39000000
   H     63.96000000    34.60000000    27.20000000
   H     63.66000000    34.77000000    25.32000000
   H     62.75000000    31.75000000    26.91000000
   H     62.88000000    32.82000000    28.45000000
   H     61.86000000    33.27000000    26.98000000
   N     67.46000000    32.90000000    26.01000000
   C     68.73000000    33.16000000    25.35000000
   C     68.53000000    33.34000000    23.86000000
   O     69.33000000    32.87000000    23.05000000
   C     69.43000000    34.36000000    25.98000000
   C     69.34000000    34.39000000    27.50000000
   C     70.87000000    34.49000000    25.50000000
   C     70.24000000    33.42000000    28.26000000
   H     67.32000000    31.97000000    26.39000000
   H     69.36000000    32.27000000    25.42000000
   H     69.03000000    35.30000000    25.62000000
   H     68.30000000    34.31000000    27.82000000
   H     69.52000000    35.41000000    27.85000000
   H     70.97000000    34.80000000    24.46000000
   H     71.45000000    35.24000000    26.05000000
   H     71.35000000    33.52000000    25.63000000
   H     71.20000000    33.89000000    28.46000000
   H     69.71000000    33.16000000    29.18000000
   H     70.39000000    32.50000000    27.70000000
   N     67.41000000    33.92000000    23.42000000
   C     67.01000000    34.10000000    22.04000000
   C     67.47000000    35.43000000    21.45000000
   O     67.76000000    36.39000000    22.17000000
   C     65.50000000    33.99000000    21.85000000
   C     64.66000000    35.12000000    22.44000000
   O     65.11000000    32.80000000    22.49000000
   H     66.69000000    34.17000000    24.09000000
   H     67.31000000    33.23000000    21.47000000
   H     65.30000000    33.81000000    20.79000000
   H     65.08000000    32.18000000    21.76000000
   H     64.91000000    35.17000000    23.50000000
   H     64.93000000    36.03000000    21.91000000
   H     63.62000000    34.84000000    22.29000000
   N     67.59000000    35.52000000    20.13000000
   C     67.67000000    36.81000000    19.46000000
   C     66.40000000    37.57000000    19.83000000
   O     65.33000000    37.09000000    19.47000000
   C     67.80000000    36.71000000    17.94000000
   C     69.20000000    36.21000000    17.57000000
   O     66.73000000    35.89000000    17.56000000
   H     67.58000000    34.65000000    19.62000000
   H     68.54000000    37.43000000    19.68000000
   H     67.73000000    37.65000000    17.38000000
   H     65.96000000    36.23000000    18.03000000
   H     69.95000000    36.99000000    17.67000000
   H     69.37000000    35.34000000    18.21000000
   H     69.13000000    35.93000000    16.52000000
   N     66.57000000    38.76000000    20.41000000
   C     65.51000000    39.68000000    20.76000000
   C     64.57000000    38.98000000    21.73000000
   O     63.61000000    38.31000000    21.35000000
   C     64.82000000    40.38000000    19.59000000
   C     65.78000000    41.29000000    18.82000000
   C     64.96000000    41.78000000    17.63000000
   C     65.71000000    42.89000000    16.90000000
   N     65.54000000    44.15000000    17.63000000
   H     67.49000000    39.15000000    20.52000000
   H     65.96000000    40.41000000    21.43000000
   H     64.00000000    40.97000000    20.01000000
   H     64.34000000    39.62000000    18.98000000
   H     66.63000000    40.78000000    18.36000000
   H     66.09000000    42.08000000    19.50000000
   H     64.02000000    42.18000000    17.99000000
   H     64.75000000    41.03000000    16.87000000
   H     65.15000000    43.03000000    15.98000000
   H     66.73000000    42.61000000    16.64000000
   H     64.58000000    44.31000000    17.92000000
   H     66.11000000    44.11000000    18.46000000
   H     65.99000000    44.88000000    17.11000000
   N     64.69000000    39.21000000    23.04000000
   C     63.90000000    38.70000000    24.14000000
   C     64.65000000    37.69000000    24.99000000
   O     63.99000000    36.73000000    25.38000000
   C     63.42000000    39.93000000    24.91000000
   C     62.52000000    39.61000000    26.11000000
   C     61.95000000    40.88000000    26.72000000
   O     62.07000000    40.97000000    27.96000000
   O     61.40000000    41.79000000    26.06000000
   H     65.39000000    39.90000000    23.27000000
   H     63.04000000    38.14000000    23.76000000
   H     62.82000000    40.47000000    24.17000000
   H     64.23000000    40.60000000    25.19000000
   H     63.11000000    39.07000000    26.85000000
   H     61.72000000    38.98000000    25.72000000
   N     65.95000000    37.80000000    25.30000000
   C     66.95000000    38.84000000    25.31000000
   H     67.84300000    38.49000000    24.79200000
   H     66.56100000    39.72400000    24.80400000
   H     67.20300000    39.09200000    26.34000000
   H     66.20000000    37.02000000    25.89000000
  Ca     59.93000000    29.93000000    34.43000000
   O     57.78000000    29.54000000    35.87000000
   H     57.55000000    29.98000000    36.69000000
   H     56.99000000    29.59000000    35.33000000
   O     57.45000000    30.97000000    33.56000000
   H     56.64000000    30.50000000    33.77000000
   H     57.35000000    31.20000000    32.63000000
   O     59.73000000    32.69000000    34.80000000
   H     60.45000000    33.06000000    35.32000000
   H     59.02000000    33.32000000    34.89000000
   O     58.53000000    28.36000000    32.67000000
   H     57.75000000    28.53000000    32.13000000
   H     58.52000000    27.41000000    32.82000000

Ca 1.00



