%chk=loop2.apoCaM-CA-Ng.Init293.run31.water7.chk
%nprocshared=20
%mem=10GB
%nosave
#b3lyp/svp scf=(tight,noincore,xqc) Test 
#IOP(5/87=12) Density=Current Pop=(MK,readradii) iop(6/33=2) iop(6/42=6)

loop2.apoCaM-CA-Ng.Init293.run31.water7 

   -2  1 
   C     55.82000000   -13.96000000    23.60000000
   C     55.82000000   -15.09000000    24.62000000
   O     55.46000000   -14.86000000    25.77000000
   H     56.42000000   -13.13100000    23.97700000
   H     56.24300000   -14.31700000    22.66100000
   H     54.79800000   -13.62100000    23.43200000
   N     56.23000000   -16.31000000    24.25000000
   C     56.29000000   -17.43000000    25.17000000
   C     57.47000000   -17.27000000    26.11000000
   O     57.30000000   -17.53000000    27.30000000
   C     56.45000000   -18.66000000    24.28000000
   C     56.82000000   -19.97000000    24.97000000
   O     55.96000000   -20.74000000    25.45000000
   O     58.03000000   -20.25000000    25.06000000
   H     56.52000000   -16.44000000    23.29000000
   H     55.36000000   -17.49000000    25.74000000
   H     57.14000000   -18.38000000    23.49000000
   H     55.53000000   -18.80000000    23.71000000
   N     58.63000000   -16.78000000    25.66000000
   C     59.76000000   -16.26000000    26.40000000
   C     59.41000000   -15.30000000    27.53000000
   O     59.94000000   -15.36000000    28.64000000
   C     60.70000000   -17.42000000    26.72000000
   H     58.77000000   -16.68000000    24.66000000
   H     60.28000000   -15.57000000    25.75000000
   H     61.63000000   -17.09000000    27.19000000
   H     60.24000000   -18.16000000    27.38000000
   H     60.90000000   -18.01000000    25.82000000
   N     58.55000000   -14.35000000    27.15000000
   C     57.83000000   -13.33000000    27.89000000
   C     57.07000000   -13.75000000    29.14000000
   O     57.16000000   -13.10000000    30.19000000
   C     58.78000000   -12.17000000    28.20000000
   C     59.37000000   -11.56000000    26.94000000
   O     60.62000000   -11.62000000    26.89000000
   O     58.66000000   -10.82000000    26.23000000
   H     58.16000000   -14.50000000    26.23000000
   H     57.11000000   -12.94000000    27.18000000
   H     59.58000000   -12.52000000    28.85000000
   H     58.28000000   -11.35000000    28.72000000
   N     56.39000000   -14.90000000    29.15000000
   C     55.75000000   -15.54000000    30.28000000
   C     54.69000000   -14.69000000    30.97000000
   O     54.01000000   -13.96000000    30.25000000
   H     56.37000000   -15.50000000    28.34000000
   H     56.50000000   -15.85000000    31.01000000
   H     55.32000000   -16.51000000    30.01000000
   N     54.65000000   -14.68000000    32.30000000
   C     53.65000000   -13.94000000    33.04000000
   C     52.26000000   -14.13000000    32.45000000
   O     51.63000000   -13.16000000    32.03000000
   C     54.10000000   -12.49000000    33.19000000
   C     55.53000000   -12.31000000    33.66000000
   N     56.51000000   -12.30000000    32.74000000
   O     55.86000000   -12.37000000    34.84000000
   H     55.34000000   -15.19000000    32.83000000
   H     53.55000000   -14.38000000    34.04000000
   H     53.41000000   -12.06000000    33.92000000
   H     54.04000000   -12.03000000    32.20000000
   H     56.28000000   -12.32000000    31.76000000
   H     57.44000000   -12.09000000    33.06000000
   N     51.80000000   -15.38000000    32.39000000
   C     50.52000000   -15.82000000    31.87000000
   C     50.35000000   -15.77000000    30.36000000
   O     49.66000000   -16.63000000    29.82000000
   H     52.41000000   -16.12000000    32.70000000
   H     49.75000000   -15.21000000    32.34000000
   H     50.37000000   -16.86000000    32.15000000
   N     51.01000000   -14.80000000    29.71000000
   C     51.19000000   -14.70000000    28.28000000
   C     51.02000000   -13.25000000    27.84000000
   O     51.18000000   -12.30000000    28.60000000
   C     52.57000000   -15.17000000    27.84000000
   C     52.98000000   -16.54000000    28.38000000
   O     52.56000000   -15.36000000    26.44000000
   H     51.55000000   -14.19000000    30.31000000
   H     50.45000000   -15.33000000    27.79000000
   H     53.36000000   -14.45000000    28.07000000
   H     53.49000000   -15.20000000    26.23000000
   H     53.05000000   -16.39000000    29.46000000
   H     52.20000000   -17.29000000    28.24000000
   H     53.95000000   -16.78000000    27.97000000
   N     50.66000000   -13.07000000    26.57000000
   C     50.42000000   -11.80000000    25.92000000
   C     51.71000000   -10.99000000    25.87000000
   O     52.83000000   -11.49000000    25.97000000
   C     49.76000000   -11.89000000    24.55000000
   C     50.24000000   -13.09000000    23.74000000
   C     48.27000000   -12.14000000    24.74000000
   C     49.85000000   -13.17000000    22.27000000
   H     50.47000000   -13.89000000    26.00000000
   H     49.78000000   -11.23000000    26.59000000
   H     49.89000000   -10.95000000    24.01000000
   H     49.83000000   -14.00000000    24.18000000
   H     51.33000000   -13.02000000    23.78000000
   H     47.77000000   -12.41000000    23.81000000
   H     48.11000000   -13.02000000    25.36000000
   H     47.81000000   -11.27000000    25.19000000
   H     48.77000000   -13.32000000    22.19000000
   H     50.20000000   -12.23000000    21.85000000
   H     50.32000000   -13.95000000    21.67000000
   N     51.62000000    -9.66000000    25.80000000
   C     52.70000000    -8.71000000    25.97000000
   C     52.77000000    -8.03000000    27.33000000
   O     52.96000000    -6.84000000    27.53000000
   C     52.75000000    -7.73000000    24.79000000
   C     54.14000000    -7.14000000    24.68000000
   O     55.17000000    -7.81000000    24.91000000
   O     54.23000000    -5.90000000    24.53000000
   H     50.71000000    -9.28000000    25.60000000
   H     53.60000000    -9.31000000    25.80000000
   H     52.00000000    -6.95000000    24.90000000
   H     52.51000000    -8.16000000    23.82000000
   N     52.36000000    -8.80000000    28.34000000
   C     52.73000000    -8.35000000    29.67000000
   C     51.92000000    -7.25000000    30.34000000
   O     52.53000000    -6.30000000    30.81000000
   C     52.95000000    -9.55000000    30.59000000
   C     53.04000000    -9.10000000    32.03000000
   C     51.96000000    -9.29000000    32.90000000
   C     54.26000000    -8.59000000    32.48000000
   C     52.09000000    -9.04000000    34.27000000
   C     54.35000000    -8.30000000    33.85000000
   C     53.31000000    -8.55000000    34.76000000
   H     52.02000000    -9.74000000    28.22000000
   H     53.70000000    -7.86000000    29.61000000
   H     53.88000000   -10.09000000    30.39000000
   H     52.18000000   -10.32000000    30.62000000
   H     51.03000000    -9.59000000    32.44000000
   H     55.04000000    -8.41000000    31.75000000
   H     51.24000000    -9.16000000    34.92000000
   H     55.32000000    -7.97000000    34.18000000
   H     53.30000000    -8.34000000    35.82000000
   N     50.59000000    -7.21000000    30.27000000
   C     49.77000000    -8.35000000    29.92000000
   C     49.32000000    -8.37000000    28.46000000
   O     48.90000000    -9.40000000    27.96000000
   C     48.60000000    -8.32000000    30.89000000
   C     48.41000000    -6.87000000    31.32000000
   C     49.76000000    -6.26000000    30.97000000
   H     50.31000000    -9.28000000    30.09000000
   H     47.68000000    -8.70000000    30.43000000
   H     48.93000000    -8.86000000    31.78000000
   H     47.63000000    -6.30000000    30.80000000
   H     48.22000000    -6.78000000    32.39000000
   H     49.63000000    -5.37000000    30.36000000
   H     50.26000000    -5.85000000    31.85000000
   N     49.14000000    -7.20000000    27.84000000
   C     48.24000000    -6.86000000    26.76000000
   C     48.22000000    -7.81000000    25.56000000
   O     49.29000000    -8.19000000    25.10000000
   C     48.55000000    -5.42000000    26.34000000
   C     49.87000000    -5.14000000    25.63000000
   C     50.06000000    -3.70000000    25.16000000
   O     50.28000000    -3.52000000    23.94000000
   O     49.73000000    -2.74000000    25.89000000
   H     49.50000000    -6.37000000    28.29000000
   H     47.24000000    -6.80000000    27.18000000
   H     48.47000000    -4.79000000    27.23000000
   H     47.75000000    -5.03000000    25.72000000
   H     50.02000000    -5.88000000    24.85000000
   H     50.71000000    -5.48000000    26.24000000
   N     47.11000000    -7.91000000    24.82000000
   C     46.99000000    -8.33000000    23.44000000
   H     46.44300000    -7.57400000    22.87700000
   H     47.98400000    -8.45400000    23.01000000
   H     46.45200000    -9.27700000    23.39300000
   H     46.33000000    -7.43000000    25.22000000
  Ca     57.39000000    -8.62000000    25.78000000
   O     60.18000000    -8.43000000    25.00000000
   H     60.77000000    -7.87000000    25.51000000
   H     60.72000000    -9.17000000    24.73000000
   O     59.06000000    -7.96000000    27.79000000
   H     59.33000000    -8.36000000    28.61000000
   H     59.27000000    -7.03000000    27.90000000
   O     57.35000000    -9.57000000    23.24000000
   H     56.75000000    -9.18000000    22.60000000
   H     57.69000000   -10.35000000    22.80000000
   O     55.42000000   -10.68000000    25.80000000
   H     54.48000000   -10.66000000    25.67000000
   H     55.59000000   -11.54000000    26.20000000
   O     56.42000000    -9.85000000    28.18000000
   H     55.55000000   -10.22000000    28.29000000
   H     56.99000000   -10.39000000    28.73000000
   O     55.98000000    -6.99000000    27.76000000
   H     55.75000000    -7.00000000    28.69000000
   H     55.44000000    -6.29000000    27.39000000
   O     57.87000000    -6.20000000    24.78000000
   H     58.26000000    -6.18000000    23.91000000
   H     57.41000000    -5.36000000    24.85000000

Ca 1.00



