%chk=loop3.holoCaM-CaMKII.run45.water2.chk
%nprocshared=20
%mem=10GB
%nosave
#b3lyp/svp scf=(tight,noincore,xqc) Test 
#IOP(5/87=12) Density=Current Pop=(MK,readradii) iop(6/33=2) iop(6/42=6)

loop3.holoCaM-CaMKII.run45.water2 

   0  1 
   C      5.92000000    41.50000000    23.28100000
   C      6.73000000    42.20000000    24.36100000
   O      7.92000000    41.90000000    24.40100000
   H      5.01500000    42.07300000    23.07800000
   H      6.51500000    41.42600000    22.37100000
   H      5.64800000    40.50100000    23.62000000
   N      6.11000000    43.07000000    25.16100000
   C      6.61000000    43.55000000    26.44100000
   C      6.28000000    42.55000000    27.54100000
   O      5.14000000    42.11000000    27.61100000
   C      6.17000000    44.96000000    26.80100000
   C      6.43000000    45.57000000    28.17100000
   O      7.17000000    44.96000000    28.98100000
   O      6.00000000    46.72000000    28.38100000
   H      5.15000000    43.29000000    24.93100000
   H      7.70000000    43.56000000    26.33100000
   H      5.08000000    44.97000000    26.72100000
   H      6.51000000    45.71000000    26.09100000
   N      7.30000000    42.15000000    28.30100000
   C      7.18000000    41.06000000    29.24100000
   C      7.22000000    41.56000000    30.68100000
   O      7.00000000    40.76000000    31.58100000
   C      8.27000000    40.02000000    28.96100000
   C      7.99000000    39.34000000    27.63100000
   C      6.97000000    38.20000000    27.48100000
   C      7.17000000    37.04000000    28.46100000
   N      6.58000000    35.76000000    28.05100000
   H      8.24000000    42.47000000    28.09100000
   H      6.18000000    40.64000000    29.37100000
   H      8.27000000    39.34000000    29.81100000
   H      9.25000000    40.49000000    28.89100000
   H      8.92000000    38.85000000    27.32100000
   H      7.71000000    40.08000000    26.87100000
   H      7.09000000    37.71000000    26.52100000
   H      5.97000000    38.61000000    27.56100000
   H      6.64000000    37.24000000    29.39100000
   H      8.24000000    36.92000000    28.62100000
   H      6.56000000    35.19000000    28.89100000
   H      5.68000000    35.76000000    27.59100000
   H      7.12000000    35.28000000    27.35100000
   N      7.29000000    42.87000000    30.91100000
   C      6.89000000    43.49000000    32.16100000
   C      5.87000000    44.62000000    32.22100000
   O      5.69000000    45.24000000    33.26100000
   C      8.13000000    43.83000000    33.00100000
   C      8.97000000    45.04000000    32.63100000
   O      9.86000000    45.35000000    33.45100000
   O      8.79000000    45.66000000    31.56100000
   H      7.43000000    43.51000000    30.14100000
   H      6.39000000    42.72000000    32.74100000
   H      8.80000000    42.97000000    33.06100000
   H      7.84000000    43.98000000    34.04100000
   N      5.28000000    45.01000000    31.09100000
   C      4.34000000    46.10000000    30.94100000
   C      4.73000000    47.54000000    31.23100000
   O      3.90000000    48.43000000    31.41100000
   H      5.45000000    44.36000000    30.33100000
   H      3.54000000    45.93000000    31.66100000
   H      3.96000000    46.00000000    29.92100000
   N      6.04000000    47.79000000    31.30100000
   C      6.57000000    49.13000000    31.39100000
   C      6.44000000    49.97000000    30.12100000
   O      6.97000000    51.07000000    30.01100000
   C      8.00000000    49.09000000    31.91100000
   C      9.17000000    48.96000000    30.94100000
   N     10.11000000    49.90000000    30.88100000
   O      9.14000000    48.09000000    30.07100000
   H      6.67000000    47.04000000    31.08100000
   H      5.98000000    49.66000000    32.15100000
   H      8.02000000    48.41000000    32.76100000
   H      8.22000000    50.03000000    32.43100000
   H     10.19000000    50.69000000    31.50100000
   H     10.84000000    49.72000000    30.20100000
   N      5.85000000    49.47000000    29.03100000
   C      5.64000000    50.29000000    27.85100000
   C      6.67000000    50.18000000    26.73100000
   O      6.61000000    50.81000000    25.68100000
   H      5.44000000    48.55000000    29.08100000
   H      5.32000000    51.30000000    28.11100000
   H      4.73000000    49.93000000    27.37100000
   N      7.69000000    49.35000000    26.97100000
   C      8.86000000    49.23000000    26.12100000
   C      9.20000000    47.75000000    26.03100000
   O      8.97000000    46.98000000    26.96100000
   C     10.05000000    49.98000000    26.71100000
   C     10.02000000    51.49000000    26.61100000
   C     10.82000000    52.21000000    25.71100000
   C      9.30000000    52.21000000    27.57100000
   C     10.85000000    53.61000000    25.72100000
   C      9.17000000    53.61000000    27.51100000
   C      9.96000000    54.29000000    26.57100000
   O      9.91000000    55.65000000    26.61100000
   H      7.69000000    48.90000000    27.87100000
   H      8.63000000    49.61000000    25.12100000
   H     10.98000000    49.63000000    26.25100000
   H     10.19000000    49.77000000    27.77100000
   H     11.31000000    51.68000000    24.91100000
   H      8.87000000    51.64000000    28.38100000
   H     11.49000000    54.02000000    24.95100000
   H      8.54000000    54.13000000    28.22100000
   H     10.38000000    55.97000000    25.84100000
   N      9.84000000    47.36000000    24.93100000
   C     10.44000000    46.05000000    24.72100000
   C     11.94000000    46.28000000    24.72100000
   O     12.48000000    47.18000000    24.08100000
   C      9.93000000    45.48000000    23.40100000
   C      8.43000000    45.54000000    23.15100000
   C     10.42000000    44.08000000    23.04100000
   C      7.93000000    45.58000000    21.71100000
   H      9.83000000    47.96000000    24.12100000
   H     10.08000000    45.36000000    25.48100000
   H     10.34000000    46.15000000    22.64100000
   H      8.06000000    46.45000000    23.62100000
   H      7.84000000    44.81000000    23.71100000
   H     10.10000000    43.86000000    22.02100000
   H     11.51000000    44.20000000    23.09100000
   H      9.94000000    43.35000000    23.68100000
   H      8.24000000    46.48000000    21.17100000
   H      8.30000000    44.64000000    21.30100000
   H      6.84000000    45.57000000    21.75100000
   N     12.71000000    45.36000000    25.31100000
   C     14.13000000    45.12000000    25.19100000
   C     14.52000000    43.81000000    24.51100000
   O     13.63000000    42.97000000    24.38100000
   C     14.72000000    45.42000000    26.56100000
   O     14.15000000    44.55000000    27.50100000
   H     12.14000000    44.63000000    25.72100000
   H     14.47000000    45.93000000    24.54100000
   H     14.56000000    46.45000000    26.90100000
   H     15.80000000    45.27000000    26.49100000
   H     13.24000000    44.45000000    27.23100000
   N     15.75000000    43.53000000    24.08100000
   C     16.10000000    42.36000000    23.30100000
   C     15.70000000    41.08000000    24.02100000
   O     15.34000000    40.10000000    23.37100000
   C     17.60000000    42.35000000    23.05100000
   H     16.44000000    44.27000000    24.11100000
   H     15.63000000    42.44000000    22.32100000
   H     17.69000000    41.46000000    22.42100000
   H     17.90000000    43.18000000    22.41100000
   H     18.34000000    42.26000000    23.85100000
   N     15.69000000    41.02000000    25.35100000
   C     15.45000000    39.71000000    25.92100000
   C     13.96000000    39.41000000    26.00100000
   O     13.60000000    38.24000000    26.14100000
   C     16.15000000    39.71000000    27.28100000
   H     16.43000000    41.58000000    25.76100000
   H     15.96000000    38.94000000    25.34100000
   H     15.56000000    40.34000000    27.95100000
   H     16.15000000    38.73000000    27.75100000
   H     17.17000000    40.10000000    27.22100000
   N     13.06000000    40.37000000    25.83100000
   C     11.62000000    40.26000000    25.78100000
   C     11.08000000    39.96000000    24.39100000
   O     10.25000000    39.08000000    24.22100000
   C     11.10000000    41.63000000    26.21100000
   C     11.49000000    41.90000000    27.66100000
   C     10.81000000    43.23000000    27.94100000
   O     11.33000000    44.28000000    27.49100000
   O      9.85000000    43.31000000    28.74100000
   H     13.39000000    41.33000000    25.84100000
   H     11.22000000    39.50000000    26.45100000
   H     10.01000000    41.62000000    26.16100000
   H     11.51000000    42.39000000    25.54100000
   H     12.56000000    42.04000000    27.73100000
   H     11.02000000    41.08000000    28.21100000
   N     11.75000000    40.50000000    23.37100000
   C     11.70000000    40.07000000    21.99100000
   H     11.57400000    40.93900000    21.34500000
   H     12.62800000    39.55900000    21.73500000
   H     10.86000000    39.39000000    21.85200000
   H     12.41000000    41.24000000    23.58100000
  Ca      9.56000000    45.75000000    29.15000000
   O     11.74000000    47.38000000    28.56000000
   H     12.45000000    47.17000000    29.17000000
   H     11.89000000    48.30000000    28.33000000
   O     11.51000000    45.17000000    30.81000000
   H     11.23000000    45.54000000    31.64000000
   H     12.09000000    44.45000000    31.06000000

Ca 1.00



