%chk=loop2.holoCaM.run7.water1.chk
%nprocshared=20
%mem=10GB
%nosave
#b3lyp/svp scf=(tight,noincore,xqc) Test 
#IOP(5/87=12) Density=Current Pop=(MK,readradii) iop(6/33=2) iop(6/42=6)

loop2.holoCaM.run7.water1 

   -2  1 
   C     33.42000000    29.11000000    10.64000000
   C     32.28000000    29.70000000     9.82000000
   O     31.81000000    30.79000000    10.13000000
   H     34.25400000    29.81200000    10.66000000
   H     33.07800000    28.92400000    11.65800000
   H     33.74600000    28.17300000    10.18900000
   N     31.67000000    28.99000000     8.87000000
   C     30.65000000    29.49000000     7.96000000
   C     29.26000000    29.66000000     8.55000000
   O     28.67000000    28.67000000     8.98000000
   C     30.67000000    28.56000000     6.75000000
   C     29.85000000    28.85000000     5.49000000
   O     29.52000000    30.05000000     5.34000000
   O     29.89000000    27.99000000     4.59000000
   H     31.99000000    28.09000000     8.56000000
   H     31.03000000    30.39000000     7.48000000
   H     30.32000000    27.57000000     7.06000000
   H     31.70000000    28.44000000     6.42000000
   N     28.73000000    30.87000000     8.43000000
   C     27.61000000    31.34000000     9.22000000
   C     26.27000000    31.42000000     8.49000000
   O     25.20000000    31.08000000     8.97000000
   C     27.94000000    32.78000000     9.56000000
   H     29.23000000    31.57000000     7.90000000
   H     27.36000000    30.70000000    10.07000000
   H     28.88000000    32.70000000    10.10000000
   H     28.12000000    33.35000000     8.65000000
   H     27.11000000    33.28000000    10.07000000
   N     26.36000000    31.90000000     7.25000000
   C     25.25000000    31.75000000     6.33000000
   C     25.21000000    30.33000000     5.78000000
   O     24.18000000    29.92000000     5.26000000
   C     25.14000000    32.85000000     5.27000000
   C     26.41000000    33.11000000     4.48000000
   O     26.49000000    34.09000000     3.71000000
   O     27.42000000    32.41000000     4.71000000
   H     27.19000000    32.27000000     6.81000000
   H     24.29000000    31.82000000     6.85000000
   H     24.99000000    33.78000000     5.81000000
   H     24.28000000    32.63000000     4.63000000
   N     26.33000000    29.60000000     5.78000000
   C     26.48000000    28.19000000     5.47000000
   C     26.44000000    28.03000000     3.95000000
   O     25.82000000    27.06000000     3.52000000
   H     27.15000000    30.06000000     6.16000000
   H     25.64000000    27.55000000     5.72000000
   H     27.42000000    27.80000000     5.86000000
   N     27.19000000    28.85000000     3.21000000
   C     27.19000000    28.86000000     1.77000000
   C     28.33000000    28.05000000     1.17000000
   O     28.10000000    27.37000000     0.17000000
   C     27.29000000    30.30000000     1.27000000
   C     28.72000000    30.78000000     1.46000000
   N     29.34000000    31.28000000     0.39000000
   O     29.28000000    30.73000000     2.55000000
   H     27.72000000    29.60000000     3.63000000
   H     26.21000000    28.49000000     1.48000000
   H     26.57000000    30.93000000     1.79000000
   H     27.01000000    30.27000000     0.21000000
   H     28.80000000    31.27000000    -0.47000000
   H     30.32000000    31.50000000     0.45000000
   N     29.48000000    27.88000000     1.82000000
   C     30.60000000    27.02000000     1.46000000
   C     31.87000000    27.77000000     1.07000000
   O     32.78000000    27.20000000     0.47000000
   H     29.53000000    28.26000000     2.76000000
   H     30.35000000    26.37000000     0.62000000
   H     30.97000000    26.39000000     2.26000000
   N     31.96000000    29.05000000     1.41000000
   C     33.15000000    29.87000000     1.34000000
   C     33.31000000    30.82000000     2.52000000
   O     32.35000000    31.24000000     3.16000000
   C     33.19000000    30.81000000     0.14000000
   C     32.95000000    30.10000000    -1.19000000
   O     32.22000000    31.83000000     0.07000000
   H     31.16000000    29.52000000     1.83000000
   H     34.00000000    29.19000000     1.23000000
   H     34.18000000    31.25000000     0.23000000
   H     31.84000000    31.68000000    -0.80000000
   H     33.66000000    29.28000000    -1.31000000
   H     31.95000000    29.69000000    -1.28000000
   H     33.00000000    30.77000000    -2.05000000
   N     34.57000000    31.02000000     2.91000000
   C     34.90000000    31.87000000     4.04000000
   C     34.80000000    33.32000000     3.59000000
   O     35.58000000    33.74000000     2.74000000
   C     36.28000000    31.58000000     4.61000000
   C     36.18000000    30.23000000     5.32000000
   C     36.89000000    32.60000000     5.57000000
   C     37.44000000    29.63000000     5.94000000
   H     35.34000000    30.79000000     2.29000000
   H     34.09000000    31.82000000     4.77000000
   H     37.04000000    31.50000000     3.84000000
   H     35.84000000    29.52000000     4.56000000
   H     35.38000000    30.17000000     6.05000000
   H     37.94000000    32.34000000     5.73000000
   H     36.76000000    33.58000000     5.13000000
   H     36.29000000    32.70000000     6.47000000
   H     38.25000000    29.64000000     5.20000000
   H     37.80000000    30.21000000     6.80000000
   H     37.34000000    28.58000000     6.21000000
   N     33.94000000    34.14000000     4.20000000
   C     34.05000000    35.59000000     4.20000000
   C     34.77000000    36.10000000     5.43000000
   O     35.12000000    35.33000000     6.33000000
   C     32.69000000    36.27000000     4.03000000
   C     31.62000000    35.74000000     4.96000000
   O     31.34000000    36.31000000     6.04000000
   O     30.96000000    34.74000000     4.59000000
   H     33.42000000    33.67000000     4.93000000
   H     34.65000000    35.91000000     3.34000000
   H     32.43000000    36.08000000     2.99000000
   H     32.89000000    37.33000000     4.20000000
   N     35.13000000    37.39000000     5.44000000
   C     36.03000000    37.99000000     6.40000000
   C     35.68000000    37.79000000     7.86000000
   O     36.62000000    37.46000000     8.58000000
   C     36.42000000    39.42000000     6.01000000
   C     37.59000000    39.87000000     6.84000000
   C     38.88000000    39.36000000     6.65000000
   C     37.35000000    40.67000000     7.96000000
   C     39.92000000    39.91000000     7.41000000
   C     38.43000000    41.20000000     8.69000000
   C     39.76000000    40.92000000     8.36000000
   H     34.73000000    37.98000000     4.73000000
   H     36.92000000    37.39000000     6.23000000
   H     35.56000000    40.07000000     6.13000000
   H     36.73000000    39.46000000     4.96000000
   H     39.08000000    38.65000000     5.86000000
   H     36.35000000    41.01000000     8.18000000
   H     40.90000000    39.52000000     7.14000000
   H     38.21000000    41.96000000     9.43000000
   H     40.58000000    41.33000000     8.93000000
   N     34.45000000    37.92000000     8.36000000
   C     34.21000000    37.62000000     9.76000000
   C     34.43000000    36.16000000    10.13000000
   O     34.74000000    35.87000000    11.29000000
   C     32.85000000    38.23000000    10.10000000
   C     32.14000000    38.27000000     8.76000000
   C     33.29000000    38.57000000     7.79000000
   H     34.94000000    38.13000000    10.38000000
   H     32.34000000    37.61000000    10.85000000
   H     33.02000000    39.26000000    10.42000000
   H     31.70000000    37.30000000     8.52000000
   H     31.45000000    39.12000000     8.78000000
   H     33.08000000    38.23000000     6.78000000
   H     33.51000000    39.63000000     7.76000000
   N     34.29000000    35.28000000     9.14000000
   C     34.62000000    33.87000000     9.23000000
   C     36.13000000    33.66000000     9.23000000
   O     36.58000000    32.80000000     9.99000000
   C     33.87000000    33.09000000     8.15000000
   C     32.43000000    33.57000000     8.02000000
   C     31.65000000    32.75000000     7.01000000
   O     32.28000000    32.35000000     6.01000000
   O     30.40000000    32.78000000     7.02000000
   H     33.96000000    35.66000000     8.26000000
   H     34.27000000    33.47000000    10.18000000
   H     33.79000000    32.02000000     8.35000000
   H     34.40000000    33.15000000     7.20000000
   H     32.35000000    34.65000000     7.84000000
   H     31.92000000    33.55000000     8.98000000
   N     36.88000000    34.44000000     8.45000000
   C     38.33000000    34.40000000     8.44000000
   H     38.72000000    35.23100000     9.02700000
   H     38.67100000    33.45900000     8.87200000
   H     38.68900000    34.48100000     7.41400000
   H     36.45000000    35.12000000     7.84000000
  Ca     30.04000000    32.40000000     4.47000000
   O     29.03000000    33.70000000     2.51000000
   H     28.92000000    33.83000000     1.56000000
   H     28.20000000    33.99000000     2.89000000

Ca 1.00



