%chk=loop2.apoCaM-CA-Ng.Init293.run75.water5.chk
%nprocshared=20
%mem=10GB
%nosave
#b3lyp/svp scf=(tight,noincore,xqc) Test 
#IOP(5/87=12) Density=Current Pop=(MK,readradii) iop(6/33=2) iop(6/42=6)

loop2.apoCaM-CA-Ng.Init293.run75.water5 

   -2  1 
   C     82.22000000    91.63000000    27.82000000
   C     83.56000000    92.30000000    28.06000000
   O     83.54000000    93.42000000    28.57000000
   H     81.49100000    92.37800000    27.50800000
   H     82.32400000    90.87700000    27.03900000
   H     81.88100000    91.15500000    28.74000000
   N     84.63000000    91.64000000    27.62000000
   C     85.85000000    92.42000000    27.52000000
   C     85.79000000    93.80000000    26.87000000
   O     86.33000000    94.77000000    27.40000000
   C     86.87000000    91.60000000    26.73000000
   C     88.18000000    92.35000000    26.51000000
   O     88.71000000    92.92000000    27.49000000
   O     88.77000000    92.26000000    25.42000000
   H     84.50000000    90.79000000    27.09000000
   H     86.29000000    92.48000000    28.51000000
   H     86.48000000    91.27000000    25.77000000
   H     87.18000000    90.69000000    27.23000000
   N     85.04000000    93.89000000    25.77000000
   C     84.86000000    95.14000000    25.06000000
   C     84.40000000    96.30000000    25.93000000
   O     84.60000000    97.48000000    25.65000000
   C     86.11000000    95.40000000    24.23000000
   H     84.78000000    93.00000000    25.37000000
   H     84.13000000    95.11000000    24.26000000
   H     85.88000000    96.15000000    23.48000000
   H     86.91000000    95.79000000    24.86000000
   H     86.48000000    94.50000000    23.75000000
   N     83.72000000    96.00000000    27.04000000
   C     83.01000000    96.88000000    27.95000000
   C     83.94000000    97.72000000    28.81000000
   O     83.48000000    98.59000000    29.54000000
   C     81.85000000    97.67000000    27.35000000
   C     80.89000000    96.71000000    26.67000000
   O     80.16000000    97.09000000    25.73000000
   O     80.66000000    95.56000000    27.10000000
   H     83.63000000    95.00000000    27.18000000
   H     82.57000000    96.19000000    28.67000000
   H     82.19000000    98.35000000    26.58000000
   H     81.34000000    98.16000000    28.18000000
   N     85.25000000    97.46000000    28.74000000
   C     86.28000000    98.24000000    29.40000000
   C     86.26000000    98.27000000    30.92000000
   O     85.51000000    97.53000000    31.55000000
   H     85.60000000    96.79000000    28.07000000
   H     86.14000000    99.29000000    29.15000000
   H     87.29000000    97.98000000    29.07000000
   N     86.95000000    99.26000000    31.48000000
   C     86.90000000    99.50000000    32.91000000
   C     87.31000000    98.44000000    33.93000000
   O     86.86000000    98.51000000    35.07000000
   C     85.59000000   100.22000000    33.20000000
   C     84.92000000   101.17000000    32.22000000
   N     83.62000000   101.02000000    31.98000000
   O     85.57000000   101.99000000    31.58000000
   H     87.57000000    99.80000000    30.89000000
   H     87.69000000   100.24000000    33.02000000
   H     85.74000000   100.85000000    34.07000000
   H     84.83000000    99.47000000    33.43000000
   H     83.15000000   100.17000000    32.27000000
   H     83.21000000   101.69000000    31.34000000
   N     87.97000000    97.38000000    33.45000000
   C     88.37000000    96.26000000    34.28000000
   C     87.37000000    95.12000000    34.14000000
   O     87.68000000    94.05000000    34.65000000
   H     88.41000000    97.56000000    32.56000000
   H     88.36000000    96.60000000    35.32000000
   H     89.34000000    95.97000000    33.89000000
   N     86.29000000    95.37000000    33.39000000
   C     85.35000000    94.39000000    32.88000000
   C     83.90000000    94.55000000    33.30000000
   O     83.51000000    95.68000000    33.59000000
   C     85.27000000    94.34000000    31.36000000
   C     86.63000000    94.54000000    30.68000000
   O     84.73000000    93.08000000    31.03000000
   H     86.19000000    96.32000000    33.07000000
   H     85.71000000    93.40000000    33.16000000
   H     84.61000000    95.15000000    31.06000000
   H     84.32000000    93.25000000    30.18000000
   H     86.93000000    95.59000000    30.68000000
   H     87.39000000    93.89000000    31.10000000
   H     86.57000000    94.26000000    29.62000000
   N     83.17000000    93.43000000    33.38000000
   C     81.85000000    93.29000000    33.95000000
   C     80.82000000    94.00000000    33.08000000
   O     80.72000000    93.81000000    31.87000000
   C     81.49000000    91.84000000    34.24000000
   C     82.45000000    91.16000000    35.21000000
   C     80.06000000    91.61000000    34.72000000
   C     82.22000000    91.51000000    36.67000000
   H     83.62000000    92.60000000    33.02000000
   H     81.78000000    93.79000000    34.92000000
   H     81.51000000    91.27000000    33.31000000
   H     83.51000000    91.34000000    35.00000000
   H     82.37000000    90.08000000    35.08000000
   H     79.98000000    90.58000000    35.07000000
   H     79.88000000    92.27000000    35.56000000
   H     79.38000000    91.82000000    33.89000000
   H     82.13000000    92.59000000    36.79000000
   H     81.22000000    91.15000000    36.90000000
   H     82.97000000    91.10000000    37.35000000
   N     80.01000000    94.80000000    33.76000000
   C     79.29000000    95.85000000    33.07000000
   C     79.18000000    97.10000000    33.93000000
   O     78.26000000    97.19000000    34.75000000
   C     77.91000000    95.38000000    32.63000000
   C     77.11000000    96.48000000    31.95000000
   O     77.69000000    97.49000000    31.50000000
   O     75.87000000    96.36000000    31.78000000
   H     80.05000000    94.87000000    34.77000000
   H     79.92000000    96.06000000    32.20000000
   H     77.33000000    95.03000000    33.49000000
   H     77.90000000    94.49000000    31.99000000
   N     80.17000000    97.98000000    33.83000000
   C     80.24000000    99.28000000    34.47000000
   C     81.55000000    99.55000000    35.19000000
   O     81.92000000   100.72000000    35.30000000
   C     79.87000000   100.32000000    33.41000000
   C     79.42000000   101.66000000    33.93000000
   C     78.19000000   101.82000000    34.59000000
   C     80.20000000   102.80000000    33.70000000
   C     77.86000000   103.09000000    35.06000000
   C     79.88000000   104.07000000    34.21000000
   C     78.68000000   104.22000000    34.90000000
   H     80.89000000    97.83000000    33.14000000
   H     79.49000000    99.31000000    35.27000000
   H     78.99000000    99.96000000    32.87000000
   H     80.64000000   100.35000000    32.64000000
   H     77.53000000   101.01000000    34.86000000
   H     81.18000000   102.68000000    33.27000000
   H     76.99000000   103.21000000    35.70000000
   H     80.53000000   104.93000000    34.15000000
   H     78.47000000   105.17000000    35.37000000
   N     82.39000000    98.59000000    35.58000000
   C     82.02000000    97.23000000    35.93000000
   C     80.78000000    97.01000000    36.79000000
   O     80.02000000    96.08000000    36.54000000
   C     83.18000000    96.64000000    36.73000000
   C     84.38000000    97.50000000    36.33000000
   C     83.72000000    98.85000000    36.09000000
   H     81.85000000    96.64000000    35.02000000
   H     82.97000000    96.77000000    37.79000000
   H     83.31000000    95.62000000    36.37000000
   H     85.03000000    97.49000000    37.21000000
   H     84.81000000    97.20000000    35.37000000
   H     83.44000000    99.30000000    37.04000000
   H     84.30000000    99.56000000    35.51000000
   N     80.60000000    97.88000000    37.78000000
   C     79.39000000    97.88000000    38.58000000
   C     79.15000000    96.51000000    39.20000000
   O     78.05000000    95.96000000    39.09000000
   C     78.25000000    98.63000000    37.91000000
   C     78.41000000   100.15000000    37.98000000
   C     78.19000000   100.73000000    39.37000000
   O     77.07000000   100.79000000    39.91000000
   O     79.20000000   101.13000000    39.98000000
   H     81.23000000    98.66000000    37.87000000
   H     79.72000000    98.38000000    39.49000000
   H     77.29000000    98.39000000    38.37000000
   H     78.10000000    98.43000000    36.85000000
   H     77.59000000   100.62000000    37.43000000
   H     79.30000000   100.57000000    37.52000000
   N     80.21000000    95.90000000    39.73000000
   C     80.27000000    94.56000000    40.30000000
   H     80.88200000    94.57600000    41.20100000
   H     79.26300000    94.22600000    40.55100000
   H     80.71000000    93.87500000    39.57500000
   H     81.04000000    96.48000000    39.79000000
  Ca     79.01000000    94.54000000    25.21000000
   O     78.20000000    96.03000000    23.11000000
   H     78.81000000    96.04000000    22.37000000
   H     77.54000000    96.69000000    22.88000000
   O     78.30000000    93.17000000    27.42000000
   H     78.26000000    93.57000000    28.29000000
   H     77.42000000    92.81000000    27.29000000
   O     81.70000000    94.35000000    24.21000000
   H     82.54000000    93.93000000    24.43000000
   H     81.78000000    94.54000000    23.27000000
   O     76.45000000    93.75000000    24.44000000
   H     75.70000000    94.11000000    24.91000000
   H     76.07000000    93.12000000    23.83000000
   O     76.98000000    95.59000000    26.67000000
   H     76.98000000    95.93000000    27.56000000
   H     76.06000000    95.49000000    26.45000000

Ca 1.00



