%chk=loop1.apoCaM-CA-Ng.Init295.run80.water5.chk
%nprocshared=20
%mem=10GB
%nosave
#b3lyp/svp scf=(tight,noincore,xqc) Test 
#IOP(5/87=12) Density=Current Pop=(MK,readradii) iop(6/33=2) iop(6/42=6)

loop1.apoCaM-CA-Ng.Init295.run80.water5 

   0  1 
   C     -2.42000000     3.46000000    54.51000000
   C     -2.03000000     4.26000000    53.28000000
   O     -2.85000000     4.59000000    52.43000000
   H     -3.44300000     3.10000000    54.39900000
   H     -1.74600000     2.61000000    54.62000000
   H     -2.35300000     4.09500000    55.39300000
   N     -0.73000000     4.53000000    53.08000000
   C     -0.29000000     5.37000000    51.98000000
   C      1.17000000     5.06000000    51.65000000
   O      1.96000000     4.67000000    52.51000000
   C     -0.55000000     6.81000000    52.39000000
   C     -0.68000000     7.85000000    51.28000000
   O     -0.89000000     9.05000000    51.55000000
   O     -0.59000000     7.41000000    50.11000000
   H     -0.02000000     4.18000000    53.71000000
   H     -0.86000000     5.19000000    51.07000000
   H      0.13000000     7.17000000    53.16000000
   H     -1.44000000     6.87000000    53.01000000
   N      1.51000000     5.22000000    50.37000000
   C      2.75000000     4.87000000    49.71000000
   C      3.99000000     5.65000000    50.14000000
   O      5.10000000     5.34000000    49.71000000
   C      2.54000000     4.85000000    48.20000000
   C      1.93000000     3.49000000    47.84000000
   C      2.10000000     3.16000000    46.36000000
   C      1.21000000     4.10000000    45.55000000
   N     -0.20000000     3.70000000    45.70000000
   H      0.85000000     5.73000000    49.80000000
   H      3.04000000     3.91000000    50.14000000
   H      3.49000000     4.98000000    47.69000000
   H      1.81000000     5.53000000    47.77000000
   H      0.86000000     3.50000000    48.01000000
   H      2.51000000     2.74000000    48.38000000
   H      1.74000000     2.15000000    46.21000000
   H      3.12000000     3.34000000    46.03000000
   H      1.40000000     4.04000000    44.48000000
   H      1.39000000     5.13000000    45.85000000
   H     -0.82000000     4.29000000    45.17000000
   H     -0.39000000     2.80000000    45.28000000
   H     -0.47000000     3.66000000    46.68000000
   N      3.77000000     6.66000000    50.98000000
   C      4.67000000     7.73000000    51.38000000
   C      4.26000000     8.39000000    52.69000000
   O      3.08000000     8.67000000    52.84000000
   C      4.73000000     8.87000000    50.37000000
   C      5.92000000     9.79000000    50.63000000
   O      7.08000000     9.32000000    50.63000000
   O      5.81000000    10.98000000    50.99000000
   H      2.82000000     6.79000000    51.31000000
   H      5.70000000     7.38000000    51.42000000
   H      3.79000000     9.41000000    50.32000000
   H      4.91000000     8.52000000    49.35000000
   N      5.16000000     8.74000000    53.61000000
   C      4.90000000     9.50000000    54.82000000
   C      6.19000000     9.88000000    55.53000000
   O      7.17000000     9.14000000    55.43000000
   H      6.03000000     8.23000000    53.61000000
   H      4.25000000     8.92000000    55.48000000
   H      4.39000000    10.38000000    54.42000000
   N      6.19000000    10.99000000    56.27000000
   C      7.36000000    11.51000000    56.96000000
   C      6.89000000    12.04000000    58.31000000
   O      5.94000000    12.81000000    58.46000000
   C      7.95000000    12.62000000    56.09000000
   C      8.10000000    12.23000000    54.63000000
   O      9.16000000    11.68000000    54.26000000
   O      7.20000000    12.37000000    53.77000000
   H      5.33000000    11.52000000    56.30000000
   H      8.16000000    10.79000000    57.06000000
   H      8.92000000    12.86000000    56.52000000
   H      7.29000000    13.49000000    56.14000000
   N      7.66000000    11.57000000    59.29000000
   C      7.29000000    11.60000000    60.69000000
   C      6.30000000    10.49000000    61.01000000
   O      6.56000000     9.30000000    60.87000000
   H      8.45000000    10.98000000    59.05000000
   H      6.83000000    12.56000000    60.92000000
   H      8.20000000    11.38000000    61.24000000
   N      5.11000000    10.89000000    61.48000000
   C      4.22000000     9.97000000    62.15000000
   C      4.50000000    10.03000000    63.64000000
   O      5.15000000    10.95000000    64.14000000
   C      2.77000000    10.36000000    61.87000000
   C      2.26000000    11.65000000    62.50000000
   O      2.58000000    10.56000000    60.49000000
   H      4.97000000    11.89000000    61.51000000
   H      4.31000000     8.92000000    61.87000000
   H      2.08000000     9.61000000    62.26000000
   H      1.63000000    10.56000000    60.36000000
   H      3.10000000    12.33000000    62.64000000
   H      1.58000000    12.20000000    61.85000000
   H      1.78000000    11.43000000    63.45000000
   N      3.97000000     9.09000000    64.43000000
   C      4.06000000     8.97000000    65.87000000
   C      5.40000000     8.44000000    66.35000000
   O      5.53000000     7.96000000    67.47000000
   C      2.85000000     8.18000000    66.38000000
   C      2.67000000     6.74000000    65.91000000
   C      1.58000000     8.95000000    66.03000000
   C      1.64000000     5.92000000    66.67000000
   H      3.49000000     8.29000000    64.04000000
   H      3.92000000     9.97000000    66.29000000
   H      2.96000000     8.14000000    67.47000000
   H      3.61000000     6.22000000    66.04000000
   H      2.52000000     6.64000000    64.83000000
   H      1.70000000    10.03000000    66.13000000
   H      1.13000000     8.81000000    65.04000000
   H      0.82000000     8.61000000    66.72000000
   H      1.75000000     4.86000000    66.41000000
   H      1.69000000     6.07000000    67.75000000
   H      0.68000000     6.29000000    66.32000000
   N      6.42000000     8.49000000    65.48000000
   C      7.73000000     7.99000000    65.82000000
   C      7.70000000     6.57000000    66.36000000
   O      7.04000000     5.71000000    65.78000000
   C      8.54000000     8.01000000    64.53000000
   C      8.64000000     9.41000000    63.94000000
   O      9.90000000     7.68000000    64.77000000
   H      6.20000000     8.69000000    64.52000000
   H      8.14000000     8.66000000    66.59000000
   H      8.13000000     7.25000000    63.86000000
   H     10.31000000     7.60000000    63.91000000
   H      9.39000000     9.37000000    63.15000000
   H      7.76000000     9.61000000    63.34000000
   H      8.93000000    10.20000000    64.63000000
   N      8.44000000     6.33000000    67.44000000
   C      8.62000000     5.04000000    68.09000000
   C      7.53000000     4.49000000    69.00000000
   O      7.68000000     3.37000000    69.49000000
   C      9.98000000     4.91000000    68.77000000
   C     10.21000000     5.99000000    69.82000000
   O     11.00000000     4.92000000    67.79000000
   H      9.01000000     7.03000000    67.88000000
   H      8.71000000     4.33000000    67.27000000
   H     10.01000000     3.95000000    69.28000000
   H     11.87000000     4.58000000    68.02000000
   H      9.38000000     6.02000000    70.52000000
   H     11.18000000     5.86000000    70.30000000
   H     10.30000000     6.89000000    69.20000000
   N      6.44000000     5.23000000    69.18000000
   C      5.26000000     4.78000000    69.89000000
   C      4.28000000     3.99000000    69.04000000
   O      4.38000000     4.11000000    67.82000000
   C      4.66000000     6.06000000    70.48000000
   C      5.43000000     6.86000000    71.53000000
   C      6.03000000     6.03000000    72.66000000
   C      6.52000000     7.05000000    73.68000000
   N      7.34000000     6.40000000    74.70000000
   H      6.44000000     6.10000000    68.66000000
   H      5.52000000     4.13000000    70.72000000
   H      3.73000000     5.68000000    70.89000000
   H      4.38000000     6.81000000    69.74000000
   H      4.82000000     7.58000000    72.08000000
   H      6.17000000     7.50000000    71.05000000
   H      6.93000000     5.54000000    72.28000000
   H      5.24000000     5.37000000    73.03000000
   H      5.64000000     7.45000000    74.19000000
   H      7.07000000     7.93000000    73.33000000
   H      7.02000000     5.50000000    75.02000000
   H      8.22000000     6.18000000    74.24000000
   H      7.47000000     7.01000000    75.50000000
   N      3.29000000     3.43000000    69.73000000
   C      2.14000000     2.82000000    69.08000000
   C      2.47000000     1.55000000    68.32000000
   O      3.46000000     0.89000000    68.61000000
   C      0.99000000     2.78000000    70.08000000
   C      0.64000000     4.23000000    70.39000000
   C     -0.33000000     4.31000000    71.56000000
   O     -1.56000000     4.20000000    71.37000000
   O      0.12000000     4.73000000    72.65000000
   H      3.42000000     3.19000000    70.70000000
   H      1.82000000     3.44000000    68.24000000
   H      1.25000000     2.28000000    71.02000000
   H      0.04000000     2.36000000    69.74000000
   H      0.20000000     4.57000000    69.46000000
   H      1.51000000     4.85000000    70.61000000
   N      1.77000000     1.21000000    67.23000000
   C      0.64000000     1.85000000    66.58000000
   H     -0.17500000     1.96000000    67.29500000
   H      0.93900000     2.83300000    66.21600000
   H      0.30700000     1.23700000    65.74200000
   H      1.96000000     0.29000000    66.87000000
  Ca      8.27000000    11.22000000    51.84000000
   O      8.87000000     8.91000000    53.23000000
   H      8.29000000     8.75000000    53.97000000
   H      9.65000000     8.40000000    53.42000000
   O      8.34000000    11.76000000    49.22000000
   H      8.08000000    11.16000000    48.52000000
   H      9.05000000    12.28000000    48.83000000
   O      7.73000000    13.75000000    51.57000000
   H      8.42000000    14.40000000    51.73000000
   H      7.01000000    14.04000000    52.12000000
   O     10.46000000    10.01000000    51.17000000
   H     10.44000000     9.06000000    51.21000000
   H     11.21000000    10.22000000    50.62000000
   O     10.46000000    12.78000000    51.63000000
   H     10.55000000    13.29000000    50.82000000
   H     11.24000000    12.22000000    51.64000000

Ca 1.00



