%chk=loop3.apoCaM-CA-Ng.Init295.run46.water3.chk
%nprocshared=20
%mem=10GB
%nosave
#b3lyp/svp scf=(tight,noincore,xqc) Test 
#IOP(5/87=12) Density=Current Pop=(MK,readradii) iop(6/33=2) iop(6/42=6)

loop3.apoCaM-CA-Ng.Init295.run46.water3 

   0  1 
   C     77.10000000    28.45000000    44.92000000
   C     76.77000000    27.93000000    46.32000000
   O     77.28000000    28.46000000    47.30000000
   H     78.13700000    28.21500000    44.68100000
   H     76.44300000    27.97500000    44.19100000
   H     76.95700000    29.53000000    44.89000000
   N     75.94000000    26.90000000    46.48000000
   C     75.48000000    26.39000000    47.76000000
   C     76.26000000    25.19000000    48.26000000
   O     76.86000000    24.50000000    47.44000000
   C     73.99000000    26.07000000    47.60000000
   C     73.29000000    25.68000000    48.89000000
   O     72.87000000    26.60000000    49.63000000
   O     73.13000000    24.51000000    49.31000000
   H     75.53000000    26.43000000    45.68000000
   H     75.64000000    27.21000000    48.46000000
   H     73.98000000    25.27000000    46.86000000
   H     73.41000000    26.85000000    47.11000000
   N     76.31000000    24.88000000    49.56000000
   C     76.92000000    23.72000000    50.19000000
   C     76.28000000    22.39000000    49.84000000
   O     76.93000000    21.35000000    49.90000000
   C     76.87000000    23.95000000    51.70000000
   C     77.74000000    23.09000000    52.61000000
   C     79.14000000    23.69000000    52.58000000
   C     80.02000000    22.95000000    53.58000000
   N     81.29000000    23.68000000    53.70000000
   H     75.89000000    25.50000000    50.23000000
   H     77.97000000    23.71000000    49.91000000
   H     75.83000000    23.79000000    52.00000000
   H     77.07000000    25.01000000    51.85000000
   H     77.78000000    22.06000000    52.25000000
   H     77.34000000    23.13000000    53.63000000
   H     79.09000000    24.76000000    52.80000000
   H     79.60000000    23.58000000    51.59000000
   H     80.10000000    21.90000000    53.29000000
   H     79.70000000    23.04000000    54.62000000
   H     81.10000000    24.65000000    53.90000000
   H     81.88000000    23.27000000    54.42000000
   H     81.74000000    23.69000000    52.79000000
   N     74.97000000    22.35000000    49.58000000
   C     74.14000000    21.16000000    49.54000000
   C     73.23000000    21.06000000    48.33000000
   O     72.64000000    20.03000000    48.02000000
   C     73.56000000    20.89000000    50.93000000
   C     72.65000000    22.02000000    51.39000000
   O     71.69000000    22.30000000    50.65000000
   O     73.06000000    22.69000000    52.37000000
   H     74.44000000    23.20000000    49.64000000
   H     74.89000000    20.39000000    49.35000000
   H     74.30000000    20.65000000    51.69000000
   H     72.95000000    19.99000000    50.79000000
   N     73.27000000    22.10000000    47.49000000
   C     72.37000000    22.14000000    46.35000000
   C     70.96000000    22.65000000    46.63000000
   O     70.16000000    22.78000000    45.71000000
   H     73.92000000    22.87000000    47.54000000
   H     72.30000000    21.18000000    45.86000000
   H     72.87000000    22.80000000    45.65000000
   N     70.58000000    22.94000000    47.87000000
   C     69.28000000    23.43000000    48.26000000
   C     69.48000000    24.80000000    48.90000000
   O     70.28000000    24.94000000    49.82000000
   C     68.57000000    22.41000000    49.15000000
   C     67.41000000    23.07000000    49.89000000
   N     66.34000000    23.23000000    49.12000000
   O     67.47000000    23.35000000    51.09000000
   H     71.15000000    22.64000000    48.65000000
   H     68.59000000    23.60000000    47.43000000
   H     69.28000000    22.10000000    49.92000000
   H     68.14000000    21.65000000    48.50000000
   H     66.46000000    23.14000000    48.12000000
   H     65.51000000    23.65000000    49.51000000
   N     68.72000000    25.80000000    48.44000000
   C     69.17000000    27.18000000    48.39000000
   C     68.78000000    28.00000000    49.61000000
   O     69.16000000    29.16000000    49.72000000
   H     67.92000000    25.49000000    47.91000000
   H     68.90000000    27.59000000    47.42000000
   H     70.25000000    27.04000000    48.45000000
   N     68.03000000    27.41000000    50.55000000
   C     68.03000000    27.95000000    51.90000000
   C     69.44000000    27.94000000    52.47000000
   O     70.20000000    26.99000000    52.28000000
   C     67.14000000    27.27000000    52.94000000
   C     65.71000000    27.66000000    52.68000000
   C     64.95000000    26.87000000    51.81000000
   C     65.19000000    28.81000000    53.28000000
   C     63.60000000    27.12000000    51.53000000
   C     63.85000000    29.11000000    53.01000000
   C     63.12000000    28.32000000    52.10000000
   O     61.84000000    28.65000000    51.79000000
   H     67.78000000    26.44000000    50.47000000
   H     67.65000000    28.97000000    51.88000000
   H     67.38000000    27.53000000    53.98000000
   H     67.25000000    26.19000000    52.85000000
   H     65.42000000    26.02000000    51.33000000
   H     65.78000000    29.48000000    53.88000000
   H     63.13000000    26.52000000    50.77000000
   H     63.46000000    30.08000000    53.29000000
   H     61.60000000    29.34000000    52.42000000
   N     69.66000000    29.05000000    53.18000000
   C     70.71000000    29.52000000    54.06000000
   C     70.99000000    28.59000000    55.23000000
   O     70.57000000    27.44000000    55.15000000
   C     72.01000000    29.84000000    53.33000000
   C     71.74000000    30.80000000    52.17000000
   C     72.84000000    28.67000000    52.81000000
   C     71.09000000    32.12000000    52.58000000
   H     68.93000000    29.74000000    53.10000000
   H     70.33000000    30.44000000    54.53000000
   H     72.74000000    30.36000000    53.96000000
   H     71.12000000    30.29000000    51.43000000
   H     72.67000000    31.07000000    51.68000000
   H     73.87000000    29.01000000    52.70000000
   H     72.95000000    27.85000000    53.51000000
   H     72.56000000    28.31000000    51.82000000
   H     71.54000000    32.57000000    53.47000000
   H     71.18000000    32.83000000    51.76000000
   H     70.03000000    32.07000000    52.85000000
   N     71.55000000    29.13000000    56.32000000
   C     71.96000000    28.33000000    57.45000000
   C     71.81000000    29.04000000    58.79000000
   O     71.65000000    28.51000000    59.88000000
   C     73.41000000    27.90000000    57.23000000
   O     74.23000000    29.03000000    57.02000000
   H     71.89000000    30.08000000    56.28000000
   H     71.29000000    27.47000000    57.43000000
   H     73.48000000    27.28000000    56.34000000
   H     73.75000000    27.36000000    58.11000000
   H     75.10000000    28.65000000    56.92000000
   N     71.75000000    30.38000000    58.76000000
   C     71.45000000    31.30000000    59.83000000
   C     72.13000000    31.05000000    61.17000000
   O     71.44000000    30.92000000    62.18000000
   C     69.94000000    31.52000000    59.84000000
   H     71.97000000    30.77000000    57.85000000
   H     71.89000000    32.19000000    59.40000000
   H     69.75000000    32.32000000    60.55000000
   H     69.50000000    31.75000000    58.87000000
   H     69.53000000    30.54000000    60.10000000
   N     73.47000000    31.12000000    61.21000000
   C     74.41000000    31.23000000    60.12000000
   C     75.34000000    32.43000000    60.27000000
   O     76.04000000    32.63000000    61.26000000
   C     75.30000000    29.99000000    60.03000000
   H     73.80000000    31.09000000    62.17000000
   H     73.96000000    31.25000000    59.13000000
   H     74.73000000    29.07000000    59.90000000
   H     75.98000000    30.06000000    59.18000000
   H     75.85000000    29.91000000    60.97000000
   N     75.50000000    33.39000000    59.35000000
   C     74.87000000    33.46000000    58.04000000
   C     73.82000000    34.56000000    58.07000000
   O     72.99000000    34.46000000    57.17000000
   C     75.89000000    33.73000000    56.94000000
   C     76.70000000    35.03000000    56.96000000
   C     77.95000000    34.95000000    57.82000000
   O     78.78000000    34.01000000    57.80000000
   O     78.16000000    35.95000000    58.55000000
   H     75.98000000    34.23000000    59.62000000
   H     74.35000000    32.55000000    57.75000000
   H     75.37000000    33.65000000    55.99000000
   H     76.61000000    32.91000000    56.97000000
   H     76.00000000    35.81000000    57.24000000
   H     77.00000000    35.38000000    55.97000000
   N     73.79000000    35.53000000    58.99000000
   C     72.70000000    36.49000000    58.94000000
   H     71.84100000    36.09200000    59.48000000
   H     73.01700000    37.42500000    59.40200000
   H     72.42300000    36.67300000    57.90200000
   H     74.52000000    35.63000000    59.68000000
  Ca     72.00000000    24.93000000    51.67000000
   O     72.20000000    25.47000000    54.24000000
   H     72.54000000    24.83000000    54.86000000
   H     71.68000000    26.07000000    54.77000000
   O     69.98000000    23.66000000    52.66000000
   H     69.58000000    23.92000000    53.49000000
   H     69.25000000    23.38000000    52.11000000
   O     74.34000000    25.92000000    52.36000000
   H     74.68000000    26.69000000    51.90000000
   H     74.69000000    26.01000000    53.25000000

Ca 1.00



