%chk=loop1.apoCaM-CA-Ng.Init293.run8.water3.chk
%nprocshared=20
%mem=10GB
%nosave
#b3lyp/svp scf=(tight,noincore,xqc) Test 
#IOP(5/87=12) Density=Current Pop=(MK,readradii) iop(6/33=2) iop(6/42=6)

loop1.apoCaM-CA-Ng.Init293.run8.water3 

   0  1 
   C     40.53000000    22.69000000    37.86000000
   C     40.40000000    21.67000000    36.74000000
   O     40.88000000    21.79000000    35.62000000
   H     41.16100000    23.51500000    37.52800000
   H     39.54300000    23.07100000    38.12200000
   H     40.98100000    22.21700000    38.73300000
   N     39.71000000    20.56000000    37.02000000
   C     39.43000000    19.40000000    36.20000000
   C     38.35000000    19.56000000    35.14000000
   O     37.91000000    18.57000000    34.57000000
   C     39.12000000    18.24000000    37.13000000
   C     37.93000000    18.47000000    38.05000000
   O     38.13000000    19.25000000    39.01000000
   O     36.88000000    17.81000000    37.89000000
   H     39.48000000    20.43000000    38.00000000
   H     40.31000000    18.96000000    35.73000000
   H     39.95000000    18.07000000    37.82000000
   H     38.94000000    17.27000000    36.66000000
   N     37.83000000    20.77000000    34.90000000
   C     36.58000000    20.92000000    34.19000000
   C     36.56000000    22.06000000    33.19000000
   O     36.50000000    23.19000000    33.69000000
   C     35.38000000    21.07000000    35.13000000
   C     35.32000000    20.04000000    36.26000000
   C     34.13000000    20.23000000    37.20000000
   C     33.78000000    19.25000000    38.31000000
   N     34.84000000    19.00000000    39.31000000
   H     38.16000000    21.52000000    35.49000000
   H     36.39000000    20.02000000    33.60000000
   H     34.50000000    20.94000000    34.51000000
   H     35.49000000    22.07000000    35.53000000
   H     36.25000000    20.17000000    36.81000000
   H     35.29000000    19.02000000    35.89000000
   H     33.27000000    20.33000000    36.54000000
   H     34.24000000    21.20000000    37.69000000
   H     33.55000000    18.40000000    37.66000000
   H     32.86000000    19.46000000    38.84000000
   H     35.64000000    18.55000000    38.89000000
   H     35.10000000    19.89000000    39.69000000
   H     34.55000000    18.39000000    40.06000000
   N     36.56000000    21.95000000    31.86000000
   C     36.66000000    20.80000000    30.98000000
   C     35.49000000    19.84000000    30.89000000
   O     34.78000000    19.63000000    31.87000000
   C     37.98000000    20.04000000    31.11000000
   C     39.21000000    20.93000000    31.23000000
   O     39.40000000    21.93000000    30.50000000
   O     40.09000000    20.49000000    32.00000000
   H     36.62000000    22.84000000    31.40000000
   H     36.64000000    21.33000000    30.03000000
   H     38.12000000    19.37000000    30.27000000
   H     37.84000000    19.51000000    32.06000000
   N     35.27000000    19.13000000    29.78000000
   C     35.94000000    19.06000000    28.50000000
   C     35.41000000    17.86000000    27.73000000
   O     34.23000000    17.75000000    27.42000000
   H     34.64000000    18.37000000    29.94000000
   H     37.02000000    19.10000000    28.64000000
   H     35.71000000    20.00000000    27.99000000
   N     36.29000000    16.96000000    27.28000000
   C     37.70000000    16.90000000    27.62000000
   C     38.05000000    16.46000000    29.04000000
   O     37.20000000    15.83000000    29.67000000
   C     38.48000000    16.13000000    26.56000000
   C     38.17000000    16.37000000    25.09000000
   O     37.55000000    15.47000000    24.49000000
   O     38.50000000    17.46000000    24.57000000
   H     35.90000000    16.04000000    27.16000000
   H     38.17000000    17.86000000    27.43000000
   H     38.21000000    15.09000000    26.75000000
   H     39.54000000    16.21000000    26.78000000
   N     39.25000000    16.79000000    29.50000000
   C     39.69000000    16.71000000    30.88000000
   C     41.18000000    16.79000000    31.16000000
   O     41.90000000    15.84000000    30.89000000
   H     39.82000000    17.34000000    28.88000000
   H     39.27000000    15.80000000    31.32000000
   H     39.18000000    17.55000000    31.35000000
   N     41.67000000    17.91000000    31.71000000
   C     43.11000000    18.10000000    31.76000000
   C     43.44000000    19.19000000    32.78000000
   O     42.86000000    20.27000000    32.84000000
   C     43.66000000    18.41000000    30.37000000
   C     45.18000000    18.27000000    30.43000000
   O     43.21000000    19.65000000    29.89000000
   H     41.14000000    18.75000000    31.86000000
   H     43.66000000    17.23000000    32.10000000
   H     43.35000000    17.61000000    29.69000000
   H     42.58000000    19.46000000    29.19000000
   H     45.53000000    17.55000000    31.17000000
   H     45.48000000    17.77000000    29.51000000
   H     45.70000000    19.23000000    30.52000000
   N     44.40000000    18.93000000    33.67000000
   C     44.76000000    19.81000000    34.77000000
   C     46.21000000    19.56000000    35.14000000
   O     46.55000000    18.88000000    36.10000000
   C     43.73000000    19.61000000    35.88000000
   C     44.03000000    20.29000000    37.21000000
   C     43.23000000    18.20000000    36.16000000
   C     44.55000000    21.72000000    37.01000000
   H     44.74000000    17.98000000    33.75000000
   H     44.74000000    20.84000000    34.43000000
   H     42.89000000    20.23000000    35.58000000
   H     44.82000000    19.76000000    37.74000000
   H     43.14000000    20.30000000    37.84000000
   H     42.62000000    18.05000000    37.05000000
   H     42.72000000    17.85000000    35.26000000
   H     44.12000000    17.58000000    36.23000000
   H     44.05000000    22.25000000    36.20000000
   H     44.27000000    22.29000000    37.89000000
   H     45.63000000    21.66000000    36.86000000
   N     47.09000000    20.05000000    34.26000000
   C     48.50000000    19.76000000    34.32000000
   C     49.37000000    20.97000000    34.01000000
   O     50.58000000    20.77000000    33.90000000
   C     48.89000000    18.60000000    33.41000000
   C     48.82000000    18.91000000    31.91000000
   O     48.13000000    17.49000000    33.82000000
   H     46.70000000    20.63000000    33.53000000
   H     48.79000000    19.57000000    35.35000000
   H     49.92000000    18.31000000    33.59000000
   H     48.57000000    17.22000000    34.63000000
   H     49.22000000    18.04000000    31.39000000
   H     47.82000000    19.17000000    31.57000000
   H     49.43000000    19.72000000    31.52000000
   N     48.79000000    22.17000000    33.93000000
   C     49.44000000    23.36000000    33.41000000
   C     49.91000000    23.23000000    31.97000000
   O     49.96000000    22.11000000    31.46000000
   C     50.54000000    23.96000000    34.29000000
   C     50.21000000    23.77000000    35.77000000
   O     50.57000000    25.35000000    34.06000000
   H     47.81000000    22.25000000    34.12000000
   H     48.60000000    24.06000000    33.42000000
   H     51.47000000    23.44000000    34.08000000
   H     51.11000000    25.77000000    34.72000000
   H     50.60000000    22.80000000    36.08000000
   H     50.76000000    24.59000000    36.23000000
   H     49.14000000    23.83000000    35.97000000
   N     50.15000000    24.32000000    31.24000000
   C     50.84000000    24.38000000    29.97000000
   C     49.93000000    24.40000000    28.75000000
   O     50.38000000    23.93000000    27.71000000
   C     51.82000000    25.54000000    29.97000000
   C     52.97000000    25.54000000    30.97000000
   C     54.01000000    24.43000000    30.84000000
   C     55.07000000    24.47000000    31.95000000
   N     56.04000000    25.57000000    31.86000000
   H     49.97000000    25.16000000    31.77000000
   H     51.41000000    23.47000000    29.77000000
   H     51.26000000    26.44000000    30.22000000
   H     52.21000000    25.65000000    28.96000000
   H     52.66000000    25.52000000    32.02000000
   H     53.44000000    26.52000000    30.84000000
   H     54.50000000    24.46000000    29.87000000
   H     53.61000000    23.43000000    30.97000000
   H     55.63000000    23.54000000    31.91000000
   H     54.57000000    24.51000000    32.91000000
   H     55.48000000    26.41000000    31.87000000
   H     56.71000000    25.68000000    32.61000000
   H     56.48000000    25.55000000    30.95000000
   N     48.71000000    24.94000000    28.73000000
   C     47.75000000    25.62000000    29.58000000
   C     48.35000000    26.75000000    30.40000000
   O     48.49000000    26.74000000    31.62000000
   C     46.80000000    24.72000000    30.36000000
   C     46.13000000    23.66000000    29.49000000
   C     44.80000000    23.11000000    30.00000000
   O     43.80000000    22.97000000    29.25000000
   O     44.61000000    22.78000000    31.19000000
   H     48.44000000    24.75000000    27.78000000
   H     47.14000000    26.05000000    28.78000000
   H     46.08000000    25.33000000    30.91000000
   H     47.38000000    24.27000000    31.17000000
   H     46.84000000    22.86000000    29.28000000
   H     45.86000000    24.19000000    28.58000000
   N     48.78000000    27.77000000    29.65000000
   C     49.28000000    28.99000000    30.23000000
   H     50.20600000    29.27600000    29.73100000
   H     48.54100000    29.78200000    30.10600000
   H     49.47300000    28.83600000    31.29200000
   H     48.64000000    27.75000000    28.64000000
  Ca     41.99000000    22.18000000    31.00000000
   O     41.48000000    24.80000000    30.63000000
   H     41.52000000    25.13000000    29.73000000
   H     41.63000000    25.56000000    31.18000000
   O     41.39000000    21.57000000    28.43000000
   H     42.00000000    21.92000000    27.78000000
   H     40.54000000    21.57000000    27.98000000
   O     41.17000000    23.06000000    33.24000000
   H     40.27000000    23.27000000    33.48000000
   H     41.50000000    22.53000000    33.96000000

Ca 1.00



