%chk=loop2.apoCaM-CA-Ng.Init31.run24.water4.chk
%nprocshared=20
%mem=10GB
%nosave
#b3lyp/svp scf=(tight,noincore,xqc) Test 
#IOP(5/87=12) Density=Current Pop=(MK,readradii) iop(6/33=2) iop(6/42=6)

loop2.apoCaM-CA-Ng.Init31.run24.water4 

   -2  1 
   C     89.26000000    49.16000000   -27.35000000
   C     87.77000000    48.90000000   -27.46000000
   O     87.11000000    48.76000000   -26.43000000
   H     89.76700000    48.73600000   -28.21700000
   H     89.44000000    50.23400000   -27.31400000
   H     89.64400000    48.69600000   -26.44200000
   N     87.11000000    48.94000000   -28.62000000
   C     87.33000000    49.70000000   -29.83000000
   C     87.02000000    48.97000000   -31.13000000
   O     85.97000000    48.34000000   -31.23000000
   C     86.54000000    51.01000000   -29.77000000
   C     85.20000000    50.92000000   -29.07000000
   O     84.75000000    52.01000000   -28.66000000
   O     84.63000000    49.84000000   -28.76000000
   H     86.11000000    48.87000000   -28.52000000
   H     88.39000000    49.97000000   -29.88000000
   H     86.36000000    51.31000000   -30.80000000
   H     87.24000000    51.71000000   -29.32000000
   N     87.95000000    48.96000000   -32.09000000
   C     87.65000000    48.64000000   -33.47000000
   C     86.61000000    49.45000000   -34.22000000
   O     86.90000000    50.04000000   -35.26000000
   C     87.70000000    47.13000000   -33.67000000
   H     88.87000000    49.32000000   -31.85000000
   H     88.48000000    48.98000000   -34.08000000
   H     86.94000000    46.56000000   -33.14000000
   H     87.80000000    46.98000000   -34.75000000
   H     88.59000000    46.69000000   -33.21000000
   N     85.40000000    49.57000000   -33.67000000
   C     84.26000000    50.35000000   -34.11000000
   C     83.73000000    51.12000000   -32.91000000
   O     83.66000000    50.53000000   -31.83000000
   C     83.18000000    49.45000000   -34.68000000
   C     83.02000000    48.18000000   -33.85000000
   O     82.42000000    48.19000000   -32.75000000
   O     83.52000000    47.13000000   -34.33000000
   H     85.30000000    49.13000000   -32.77000000
   H     84.55000000    51.02000000   -34.93000000
   H     83.47000000    49.18000000   -35.70000000
   H     82.25000000    50.01000000   -34.58000000
   N     83.56000000    52.44000000   -32.91000000
   C     83.20000000    53.21000000   -31.73000000
   C     81.69000000    53.13000000   -31.56000000
   O     81.04000000    53.10000000   -32.60000000
   H     83.40000000    52.80000000   -33.84000000
   H     83.44000000    54.27000000   -31.83000000
   H     83.73000000    52.72000000   -30.91000000
   N     81.13000000    53.04000000   -30.35000000
   C     79.72000000    52.86000000   -30.07000000
   C     79.27000000    53.96000000   -29.12000000
   O     78.10000000    54.36000000   -29.13000000
   C     79.51000000    51.45000000   -29.54000000
   C     80.01000000    50.42000000   -30.54000000
   N     79.39000000    50.42000000   -31.72000000
   O     81.00000000    49.71000000   -30.36000000
   H     81.71000000    53.20000000   -29.53000000
   H     79.20000000    52.97000000   -31.02000000
   H     78.44000000    51.24000000   -29.44000000
   H     80.08000000    51.24000000   -28.64000000
   H     78.70000000    51.10000000   -31.99000000
   H     79.67000000    49.66000000   -32.33000000
   N     80.15000000    54.47000000   -28.26000000
   C     79.72000000    55.26000000   -27.12000000
   C     79.04000000    54.36000000   -26.09000000
   O     78.65000000    53.23000000   -26.38000000
   H     81.06000000    54.04000000   -28.26000000
   H     79.13000000    56.12000000   -27.43000000
   H     80.63000000    55.69000000   -26.70000000
   N     78.76000000    54.84000000   -24.88000000
   C     79.06000000    56.16000000   -24.35000000
   C     80.18000000    56.17000000   -23.32000000
   O     80.82000000    57.21000000   -23.18000000
   C     77.86000000    56.77000000   -23.64000000
   C     76.74000000    57.01000000   -24.64000000
   O     77.35000000    55.96000000   -22.61000000
   H     78.23000000    54.20000000   -24.30000000
   H     79.45000000    56.79000000   -25.16000000
   H     78.20000000    57.74000000   -23.28000000
   H     76.49000000    56.33000000   -22.41000000
   H     77.15000000    57.19000000   -25.64000000
   H     76.02000000    56.19000000   -24.59000000
   H     76.16000000    57.90000000   -24.39000000
   N     80.34000000    55.03000000   -22.63000000
   C     80.95000000    54.79000000   -21.34000000
   C     79.98000000    55.25000000   -20.27000000
   O     79.67000000    56.44000000   -20.14000000
   C     82.31000000    55.42000000   -21.08000000
   C     83.27000000    55.03000000   -22.21000000
   C     82.80000000    54.99000000   -19.70000000
   C     84.69000000    55.56000000   -22.05000000
   H     79.69000000    54.30000000   -22.86000000
   H     81.05000000    53.70000000   -21.26000000
   H     82.25000000    56.50000000   -21.14000000
   H     82.93000000    55.33000000   -23.20000000
   H     83.33000000    53.94000000   -22.25000000
   H     82.88000000    53.90000000   -19.66000000
   H     83.70000000    55.52000000   -19.39000000
   H     82.07000000    55.26000000   -18.94000000
   H     85.22000000    55.10000000   -22.89000000
   H     84.76000000    56.64000000   -22.17000000
   H     84.89000000    55.21000000   -21.04000000
   N     79.28000000    54.37000000   -19.55000000
   C     79.25000000    52.93000000   -19.70000000
   C     80.39000000    52.26000000   -18.95000000
   O     81.35000000    51.78000000   -19.54000000
   C     77.93000000    52.25000000   -19.34000000
   C     77.03000000    52.79000000   -18.24000000
   O     75.79000000    52.83000000   -18.43000000
   O     77.60000000    53.17000000   -17.19000000
   H     78.67000000    54.76000000   -18.84000000
   H     79.39000000    52.71000000   -20.76000000
   H     78.08000000    51.19000000   -19.17000000
   H     77.40000000    52.37000000   -20.29000000
   N     80.28000000    52.22000000   -17.62000000
   C     81.23000000    51.61000000   -16.70000000
   C     80.57000000    50.87000000   -15.54000000
   O     79.40000000    51.16000000   -15.29000000
   C     82.18000000    52.65000000   -16.10000000
   C     81.59000000    53.74000000   -15.25000000
   C     80.91000000    54.79000000   -15.87000000
   C     81.62000000    53.52000000   -13.86000000
   C     80.08000000    55.57000000   -15.05000000
   C     80.92000000    54.48000000   -13.11000000
   C     80.22000000    55.56000000   -13.66000000
   H     79.54000000    52.76000000   -17.21000000
   H     81.87000000    50.95000000   -17.29000000
   H     82.79000000    53.08000000   -16.89000000
   H     82.91000000    52.08000000   -15.53000000
   H     80.94000000    54.82000000   -16.95000000
   H     82.15000000    52.67000000   -13.46000000
   H     79.47000000    56.36000000   -15.46000000
   H     81.02000000    54.49000000   -12.04000000
   H     79.81000000    56.34000000   -13.03000000
   N     81.22000000    49.88000000   -14.93000000
   C     82.54000000    49.30000000   -15.08000000
   C     82.71000000    48.62000000   -16.43000000
   O     81.72000000    48.30000000   -17.09000000
   C     82.68000000    48.32000000   -13.92000000
   C     81.25000000    47.82000000   -13.79000000
   C     80.57000000    49.19000000   -13.84000000
   H     83.26000000    50.12000000   -15.01000000
   H     83.31000000    47.46000000   -14.15000000
   H     82.86000000    48.76000000   -12.94000000
   H     80.96000000    47.20000000   -14.64000000
   H     81.09000000    47.19000000   -12.91000000
   H     79.52000000    49.01000000   -14.07000000
   H     80.57000000    49.72000000   -12.89000000
   N     83.96000000    48.27000000   -16.75000000
   C     84.36000000    47.69000000   -18.02000000
   C     85.70000000    48.08000000   -18.62000000
   O     86.44000000    47.25000000   -19.14000000
   C     84.13000000    46.19000000   -17.88000000
   C     84.84000000    45.58000000   -16.67000000
   C     86.33000000    45.87000000   -16.54000000
   O     87.19000000    45.19000000   -17.13000000
   O     86.68000000    46.80000000   -15.77000000
   H     84.67000000    48.50000000   -16.08000000
   H     83.59000000    48.06000000   -18.69000000
   H     84.42000000    45.63000000   -18.77000000
   H     83.08000000    45.94000000   -17.75000000
   H     84.76000000    44.49000000   -16.71000000
   H     84.27000000    45.72000000   -15.76000000
   N     86.18000000    49.33000000   -18.55000000
   C     85.66000000    50.55000000   -17.96000000
   H     84.66800000    50.36100000   -17.55000000
   H     86.32500000    50.88100000   -17.16200000
   H     85.59500000    51.32500000   -18.72400000
   H     87.03000000    49.43000000   -19.09000000
  Ca     83.18000000    48.33000000   -30.23700000
   O     81.77000000    46.23000000   -30.09700000
   H     80.99000000    46.02000000   -29.58700000
   H     81.93000000    45.44000000   -30.60700000
   O     84.89000000    46.70000000   -28.95700000
   H     85.73000000    46.33000000   -29.22700000
   H     84.58000000    46.09000000   -28.28700000
   O     82.12000000    48.35000000   -27.70700000
   H     82.67000000    48.02000000   -26.99700000
   H     81.38000000    48.76000000   -27.27700000
   O     84.00000000    46.23000000   -31.90700000
   H     83.69000000    46.61000000   -32.72700000
   H     84.48000000    45.45000000   -32.16700000

Ca 1.00



