%chk=loop4.apoCaM-CA-Ng.Init31.run15.water5.chk
%nprocshared=20
%mem=10GB
%nosave
#b3lyp/svp scf=(tight,noincore,xqc) Test 
#IOP(5/87=12) Density=Current Pop=(MK,readradii) iop(6/33=2) iop(6/42=6)

loop4.apoCaM-CA-Ng.Init31.run15.water5 

   -3  1 
   C     80.20000000    72.69000000    25.48000000
   C     81.56000000    72.39000000    26.09000000
   O     82.39000000    71.74000000    25.44000000
   H     79.50700000    72.98700000    26.26700000
   H     80.29600000    73.50000000    24.75700000
   H     79.82100000    71.79900000    24.98000000
   N     81.85000000    72.57000000    27.38000000
   C     80.95000000    73.00000000    28.43000000
   C     81.04000000    74.43000000    28.94000000
   O     80.20000000    74.86000000    29.72000000
   C     81.05000000    72.03000000    29.61000000
   C     80.95000000    70.57000000    29.18000000
   O     80.20000000    70.22000000    28.24000000
   O     81.58000000    69.71000000    29.85000000
   H     82.81000000    72.40000000    27.61000000
   H     79.89000000    72.85000000    28.19000000
   H     80.30000000    72.24000000    30.36000000
   H     82.05000000    72.14000000    30.03000000
   N     82.07000000    75.21000000    28.61000000
   C     82.48000000    76.45000000    29.24000000
   C     83.26000000    76.21000000    30.52000000
   O     83.29000000    77.06000000    31.41000000
   C     83.27000000    77.32000000    28.26000000
   C     83.78000000    78.62000000    28.86000000
   C     84.40000000    76.56000000    27.57000000
   C     83.80000000    79.80000000    27.90000000
   H     82.75000000    74.81000000    27.97000000
   H     81.65000000    77.07000000    29.58000000
   H     82.51000000    77.49000000    27.49000000
   H     84.78000000    78.51000000    29.29000000
   H     83.05000000    78.86000000    29.64000000
   H     85.02000000    77.17000000    26.92000000
   H     85.04000000    76.19000000    28.37000000
   H     83.95000000    75.77000000    26.97000000
   H     84.12000000    80.74000000    28.36000000
   H     84.48000000    79.61000000    27.07000000
   H     82.79000000    80.03000000    27.57000000
   N     84.04000000    75.14000000    30.69000000
   C     84.93000000    75.02000000    31.82000000
   C     85.26000000    73.57000000    32.17000000
   O     84.89000000    73.18000000    33.28000000
   C     86.23000000    75.79000000    31.58000000
   C     87.23000000    75.66000000    32.72000000
   O     88.19000000    74.87000000    32.68000000
   O     86.92000000    76.21000000    33.81000000
   H     83.85000000    74.37000000    30.06000000
   H     84.38000000    75.41000000    32.67000000
   H     85.93000000    76.84000000    31.51000000
   H     86.74000000    75.59000000    30.64000000
   N     86.04000000    72.85000000    31.37000000
   C     86.61000000    71.61000000    31.86000000
   C     87.43000000    70.90000000    30.80000000
   O     87.75000000    71.46000000    29.75000000
   H     86.38000000    73.17000000    30.47000000
   H     85.88000000    70.83000000    32.04000000
   H     87.23000000    71.87000000    32.72000000
   N     87.81000000    69.67000000    31.15000000
   C     88.71000000    68.86000000    30.35000000
   C     89.28000000    67.83000000    31.32000000
   O     88.72000000    67.60000000    32.40000000
   C     88.05000000    68.28000000    29.10000000
   C     86.71000000    67.59000000    29.28000000
   O     85.64000000    68.00000000    28.77000000
   O     86.72000000    66.57000000    29.99000000
   H     87.63000000    69.34000000    32.09000000
   H     89.51000000    69.51000000    30.01000000
   H     88.72000000    67.64000000    28.53000000
   H     87.82000000    69.19000000    28.54000000
   N     90.39000000    67.18000000    30.98000000
   C     91.43000000    67.75000000    30.14000000
   C     92.29000000    68.77000000    30.86000000
   O     92.15000000    68.90000000    32.07000000
   H     90.58000000    66.50000000    31.70000000
   H     90.98000000    68.27000000    29.29000000
   H     92.06000000    66.93000000    29.78000000
   N     93.28000000    69.35000000    30.17000000
   C     93.42000000    69.53000000    28.74000000
   C     92.29000000    70.33000000    28.10000000
   O     91.19000000    70.48000000    28.64000000
   C     93.87000000    68.24000000    28.07000000
   C     95.05000000    67.44000000    28.61000000
   C     96.39000000    68.13000000    28.39000000
   N     97.48000000    67.40000000    28.60000000
   O     96.46000000    69.35000000    28.25000000
   H     93.93000000    69.87000000    30.74000000
   H     94.20000000    70.28000000    28.62000000
   H     93.98000000    68.44000000    27.00000000
   H     93.06000000    67.50000000    28.04000000
   H     95.00000000    66.42000000    28.23000000
   H     94.85000000    67.36000000    29.68000000
   H     97.40000000    66.40000000    28.65000000
   H     98.41000000    67.80000000    28.68000000
   N     92.52000000    70.80000000    26.88000000
   C     91.62000000    71.40000000    25.92000000
   C     92.24000000    72.57000000    25.18000000
   O     93.45000000    72.75000000    25.03000000
   C     91.07000000    70.31000000    25.00000000
   C     90.25000000    69.20000000    25.66000000
   C     92.07000000    69.64000000    24.06000000
   H     93.49000000    70.75000000    26.58000000
   H     90.77000000    71.78000000    26.49000000
   H     90.31000000    70.75000000    24.36000000
   H     89.77000000    69.69000000    26.51000000
   H     89.67000000    68.70000000    24.89000000
   H     90.95000000    68.51000000    26.13000000
   H     92.77000000    69.10000000    24.70000000
   H     91.61000000    69.05000000    23.27000000
   H     92.68000000    70.42000000    23.62000000
   N     91.40000000    73.49000000    24.71000000
   C     91.74000000    74.55000000    23.77000000
   C     91.09000000    74.33000000    22.41000000
   O     91.76000000    74.04000000    21.42000000
   C     91.25000000    75.85000000    24.40000000
   C     91.80000000    76.18000000    25.78000000
   N     91.21000000    75.79000000    26.91000000
   O     92.84000000    76.83000000    25.88000000
   H     90.41000000    73.32000000    24.84000000
   H     92.80000000    74.76000000    23.59000000
   H     90.18000000    76.02000000    24.46000000
   H     91.49000000    76.67000000    23.73000000
   H     90.33000000    75.29000000    26.93000000
   H     91.64000000    75.96000000    27.81000000
   N     89.77000000    74.43000000    22.30000000
   C     88.92000000    74.38000000    21.12000000
   C     88.78000000    73.01000000    20.49000000
   O     89.60000000    72.10000000    20.47000000
   C     89.27000000    75.54000000    20.19000000
   C     88.25000000    75.85000000    19.12000000
   C     88.27000000    75.29000000    17.83000000
   C     87.22000000    76.75000000    19.40000000
   C     87.34000000    75.67000000    16.86000000
   C     86.24000000    77.14000000    18.49000000
   C     86.34000000    76.60000000    17.19000000
   O     85.32000000    76.84000000    16.31000000
   H     89.20000000    74.51000000    23.13000000
   H     87.91000000    74.71000000    21.35000000
   H     90.24000000    75.45000000    19.70000000
   H     89.33000000    76.46000000    20.77000000
   H     89.13000000    74.72000000    17.52000000
   H     87.19000000    77.24000000    20.37000000
   H     87.46000000    75.33000000    15.84000000
   H     85.34000000    77.69000000    18.75000000
   H     84.72000000    77.55000000    16.53000000
   N     87.66000000    72.80000000    19.79000000
   C     87.35000000    71.55000000    19.14000000
   C     85.94000000    71.10000000    19.48000000
   O     85.01000000    71.46000000    18.76000000
   C     87.55000000    71.61000000    17.63000000
   C     89.00000000    71.34000000    17.23000000
   C     89.42000000    69.88000000    17.32000000
   O     90.56000000    69.53000000    16.93000000
   O     88.69000000    69.13000000    18.00000000
   H     87.02000000    73.59000000    19.85000000
   H     87.97000000    70.72000000    19.48000000
   H     87.28000000    72.60000000    17.27000000
   H     86.99000000    70.80000000    17.17000000
   H     89.51000000    71.99000000    17.94000000
   H     89.10000000    71.71000000    16.20000000
   N     85.69000000    70.41000000    20.60000000
   C     84.33000000    70.17000000    21.04000000
   C     83.69000000    71.50000000    21.42000000
   O     82.53000000    71.68000000    21.06000000
   C     84.45000000    69.14000000    22.16000000
   C     83.13000000    68.65000000    22.75000000
   C     83.35000000    67.71000000    23.93000000
   O     82.82000000    66.58000000    23.87000000
   O     84.02000000    68.06000000    24.92000000
   H     86.47000000    70.08000000    21.14000000
   H     83.69000000    69.78000000    20.25000000
   H     85.16000000    69.48000000    22.92000000
   H     84.95000000    68.27000000    21.73000000
   H     82.54000000    68.18000000    21.96000000
   H     82.54000000    69.45000000    23.17000000
   N     84.46000000    72.40000000    22.04000000
   C     83.95000000    73.72000000    22.33000000
   H     82.97300000    73.63500000    22.80500000
   H     84.63600000    74.23600000    23.00100000
   H     83.85400000    74.28500000    21.40300000
   H     85.39000000    72.09000000    22.29000000
  Ca     80.59000000    67.60000000    28.23000000
   O     82.90000000    67.00000000    29.60000000
   H     83.78000000    67.32000000    29.37000000
   H     83.06000000    66.14000000    29.99000000
   O     82.43000000    68.88000000    26.82000000
   H     81.98000000    69.57000000    26.33000000
   H     83.22000000    68.71000000    26.31000000
   O     79.22000000    68.18000000    30.39000000
   H     79.31000000    67.71000000    31.22000000
   H     78.99000000    69.08000000    30.65000000
   O     79.41000000    65.33000000    28.59000000
   H     78.64000000    65.23000000    28.03000000
   H     79.53000000    64.47000000    29.00000000
   O     81.45000000    66.14000000    26.15000000
   H     81.84000000    66.38000000    25.31000000
   H     81.48000000    65.19000000    26.17000000

Ca 1.00



