%chk=loop4.holoCaM-CaMKII.run83.water2.chk
%nprocshared=20
%mem=10GB
%nosave
#b3lyp/svp scf=(tight,noincore,xqc) Test 
#IOP(5/87=12) Density=Current Pop=(MK,readradii) iop(6/33=2) iop(6/42=6)

loop4.holoCaM-CaMKII.run83.water2 

   -3  1 
   C     39.70000000    52.05000000    93.88000000
   C     38.79000000    50.83000000    93.81000000
   O     38.00000000    50.66000000    92.89000000
   H     40.62800000    51.84100000    93.34800000
   H     39.20200000    52.90300000    93.41900000
   H     39.92300000    52.27900000    94.92200000
   N     38.94000000    49.84000000    94.69000000
   C     38.13000000    48.64000000    94.71000000
   C     36.72000000    49.07000000    95.07000000
   O     36.47000000    49.89000000    95.96000000
   C     38.76000000    47.70000000    95.73000000
   C     38.09000000    46.34000000    95.92000000
   O     38.14000000    45.84000000    97.06000000
   O     37.40000000    45.91000000    94.97000000
   H     39.76000000    49.82000000    95.28000000
   H     38.16000000    48.17000000    93.73000000
   H     38.79000000    48.20000000    96.70000000
   H     39.80000000    47.55000000    95.44000000
   N     35.75000000    48.57000000    94.30000000
   C     34.35000000    48.91000000    94.45000000
   C     33.47000000    47.79000000    94.98000000
   O     32.39000000    48.07000000    95.50000000
   C     33.74000000    49.52000000    93.20000000
   C     33.57000000    48.69000000    91.93000000
   C     34.49000000    50.78000000    92.79000000
   C     32.14000000    48.21000000    91.73000000
   H     36.06000000    47.97000000    93.55000000
   H     34.24000000    49.65000000    95.24000000
   H     32.76000000    49.81000000    93.57000000
   H     34.16000000    47.77000000    91.96000000
   H     33.91000000    49.17000000    91.01000000
   H     35.53000000    50.59000000    92.53000000
   H     34.01000000    51.29000000    91.95000000
   H     34.56000000    51.44000000    93.66000000
   H     31.43000000    49.03000000    91.59000000
   H     32.17000000    47.63000000    90.81000000
   H     31.77000000    47.56000000    92.53000000
   N     33.94000000    46.54000000    94.88000000
   C     33.11000000    45.41000000    95.22000000
   C     33.59000000    44.60000000    96.42000000
   O     32.97000000    43.66000000    96.92000000
   C     32.87000000    44.58000000    93.96000000
   C     34.10000000    44.05000000    93.25000000
   O     35.18000000    44.13000000    93.87000000
   O     34.01000000    43.63000000    92.08000000
   H     34.92000000    46.42000000    94.67000000
   H     32.12000000    45.77000000    95.47000000
   H     32.48000000    45.35000000    93.29000000
   H     32.30000000    43.66000000    94.14000000
   N     34.79000000    44.97000000    96.87000000
   C     35.48000000    44.46000000    98.04000000
   C     36.16000000    43.11000000    97.87000000
   O     35.60000000    42.10000000    98.29000000
   H     35.37000000    45.58000000    96.30000000
   H     34.64000000    44.29000000    98.72000000
   H     36.19000000    45.17000000    98.46000000
   N     37.34000000    43.09000000    97.24000000
   C     38.17000000    41.92000000    97.10000000
   C     39.64000000    42.30000000    97.21000000
   O     40.48000000    41.41000000    97.34000000
   C     37.91000000    41.30000000    95.73000000
   C     38.22000000    42.17000000    94.52000000
   O     39.06000000    43.10000000    94.52000000
   O     37.55000000    42.02000000    93.48000000
   H     37.76000000    43.99000000    97.10000000
   H     37.86000000    41.17000000    97.83000000
   H     36.85000000    41.06000000    95.72000000
   H     38.35000000    40.31000000    95.59000000
   N     39.99000000    43.57000000    97.40000000
   C     41.28000000    44.21000000    97.58000000
   C     42.13000000    44.19000000    96.32000000
   O     43.36000000    44.27000000    96.32000000
   H     39.19000000    44.17000000    97.53000000
   H     41.92000000    43.78000000    98.35000000
   H     41.03000000    45.24000000    97.83000000
   N     41.50000000    44.09000000    95.15000000
   C     42.14000000    44.20000000    93.85000000
   C     41.36000000    45.14000000    92.95000000
   O     40.21000000    45.50000000    93.20000000
   C     42.40000000    42.82000000    93.26000000
   C     43.13000000    41.81000000    94.14000000
   C     43.57000000    40.56000000    93.40000000
   N     44.70000000    39.95000000    93.75000000
   O     42.97000000    40.16000000    92.40000000
   H     40.53000000    43.82000000    95.15000000
   H     43.12000000    44.67000000    93.97000000
   H     43.07000000    42.95000000    92.41000000
   H     41.47000000    42.34000000    92.95000000
   H     42.66000000    41.54000000    95.09000000
   H     44.04000000    42.35000000    94.40000000
   H     45.15000000    40.12000000    94.64000000
   H     44.93000000    39.05000000    93.35000000
   N     42.02000000    45.47000000    91.83000000
   C     41.57000000    46.44000000    90.86000000
   C     41.50000000    45.97000000    89.41000000
   O     42.53000000    45.73000000    88.78000000
   C     42.47000000    47.66000000    91.09000000
   C     42.27000000    48.78000000    90.08000000
   C     42.22000000    48.27000000    92.47000000
   H     42.99000000    45.19000000    91.86000000
   H     40.59000000    46.82000000    91.16000000
   H     43.50000000    47.32000000    91.06000000
   H     41.29000000    49.24000000    90.19000000
   H     42.83000000    49.68000000    90.33000000
   H     42.41000000    48.39000000    89.07000000
   H     41.19000000    48.44000000    92.79000000
   H     42.64000000    47.59000000    93.20000000
   H     42.73000000    49.23000000    92.54000000
   N     40.32000000    46.10000000    88.80000000
   C     40.12000000    45.64000000    87.44000000
   C     40.02000000    46.86000000    86.55000000
   O     39.99000000    47.97000000    87.08000000
   C     38.85000000    44.78000000    87.47000000
   C     37.56000000    45.49000000    87.09000000
   N     36.90000000    46.11000000    88.06000000
   O     37.14000000    45.61000000    85.94000000
   H     39.51000000    46.29000000    89.37000000
   H     40.94000000    45.02000000    87.07000000
   H     38.69000000    44.35000000    88.46000000
   H     39.08000000    44.04000000    86.70000000
   H     37.21000000    46.09000000    89.03000000
   H     35.98000000    46.48000000    87.86000000
   N     39.98000000    46.70000000    85.22000000
   C     39.95000000    47.88000000    84.38000000
   C     38.72000000    48.72000000    84.67000000
   O     38.81000000    49.95000000    84.76000000
   C     40.22000000    47.42000000    82.95000000
   C     39.88000000    48.50000000    81.95000000
   C     40.64000000    49.67000000    81.88000000
   C     38.60000000    48.45000000    81.38000000
   C     40.15000000    50.76000000    81.14000000
   C     38.18000000    49.48000000    80.52000000
   C     38.97000000    50.63000000    80.38000000
   O     38.63000000    51.70000000    79.60000000
   H     40.06000000    45.80000000    84.77000000
   H     40.76000000    48.56000000    84.65000000
   H     39.51000000    46.60000000    82.82000000
   H     41.23000000    47.02000000    82.91000000
   H     41.58000000    49.63000000    82.40000000
   H     38.06000000    47.53000000    81.54000000
   H     40.76000000    51.65000000    81.09000000
   H     37.24000000    49.43000000    79.99000000
   H     37.79000000    51.42000000    79.23000000
   N     37.54000000    48.15000000    84.89000000
   C     36.34000000    48.89000000    85.22000000
   C     36.41000000    49.72000000    86.50000000
   O     35.77000000    50.75000000    86.70000000
   C     35.17000000    47.92000000    85.26000000
   C     33.81000000    48.60000000    85.14000000
   C     32.66000000    47.63000000    84.89000000
   O     31.60000000    47.84000000    85.50000000
   O     32.85000000    46.59000000    84.21000000
   H     37.42000000    47.15000000    84.92000000
   H     36.28000000    49.67000000    84.46000000
   H     35.12000000    47.38000000    86.21000000
   H     35.28000000    47.21000000    84.44000000
   H     33.90000000    49.29000000    84.29000000
   H     33.62000000    49.14000000    86.06000000
   N     37.22000000    49.35000000    87.49000000
   C     37.60000000    50.10000000    88.67000000
   C     38.71000000    51.12000000    88.45000000
   O     38.58000000    52.21000000    88.99000000
   C     37.97000000    49.18000000    89.83000000
   C     36.80000000    48.41000000    90.43000000
   C     37.11000000    47.18000000    91.27000000
   O     36.48000000    46.95000000    92.33000000
   O     37.90000000    46.32000000    90.82000000
   H     37.74000000    48.49000000    87.34000000
   H     36.74000000    50.66000000    89.02000000
   H     38.37000000    49.78000000    90.65000000
   H     38.67000000    48.44000000    89.41000000
   H     36.25000000    48.06000000    89.55000000
   H     36.18000000    49.14000000    90.93000000
   N     39.65000000    50.87000000    87.53000000
   C     40.46000000    51.93000000    86.96000000
   H     41.42300000    51.52400000    86.65100000
   H     39.95000000    52.35300000    86.09400000
   H     40.61700000    52.70900000    87.70600000
   H     39.77000000    49.93000000    87.20000000
  Ca     37.58000000    44.63000000    92.83000000
   O     39.31000000    43.01000000    91.23000000
   H     38.62000000    42.51000000    90.80000000
   H     40.03000000    42.38000000    91.34000000
   O     36.14000000    43.66000000    90.74000000
   H     35.80000000    43.33000000    89.92000000
   H     35.39000000    43.68000000    91.33000000

Ca 1.00



