%chk=loop1.apoCaM-CA-Ng.Init295.run74.water6.chk
%nprocshared=20
%mem=10GB
%nosave
#b3lyp/svp scf=(tight,noincore,xqc) Test 
#IOP(5/87=12) Density=Current Pop=(MK,readradii) iop(6/33=2) iop(6/42=6)

loop1.apoCaM-CA-Ng.Init295.run74.water6 

   0  1 
   C     -4.08000000     9.28000000    59.10000000
   C     -3.73000000    10.75000000    58.98000000
   O     -4.57000000    11.64000000    58.82000000
   H     -5.03900000     9.09500000    58.61600000
   H     -3.30800000     8.68100000    58.61700000
   H     -4.14700000     9.00700000    60.15300000
   N     -2.43000000    11.04000000    59.08000000
   C     -1.78000000    12.33000000    59.18000000
   C     -1.14000000    12.92000000    57.93000000
   O     -0.76000000    12.16000000    57.04000000
   C     -0.65000000    12.26000000    60.20000000
   C     -1.09000000    11.61000000    61.50000000
   O     -0.87000000    10.41000000    61.78000000
   O     -1.60000000    12.40000000    62.32000000
   H     -1.77000000    10.28000000    59.09000000
   H     -2.45000000    13.09000000    59.60000000
   H     -0.38000000    13.31000000    60.35000000
   H      0.23000000    11.70000000    59.87000000
   N     -1.04000000    14.25000000    57.80000000
   C     -0.42000000    15.00000000    56.73000000
   C      1.10000000    14.91000000    56.74000000
   O      1.80000000    14.89000000    55.73000000
   C     -0.92000000    16.42000000    57.01000000
   C     -0.80000000    17.42000000    55.86000000
   C     -1.95000000    17.16000000    54.89000000
   C     -1.85000000    17.88000000    53.55000000
   N     -1.77000000    19.33000000    53.71000000
   H     -1.44000000    14.78000000    58.56000000
   H     -0.79000000    14.62000000    55.78000000
   H     -0.40000000    16.86000000    57.85000000
   H     -1.99000000    16.30000000    57.18000000
   H      0.17000000    17.29000000    55.36000000
   H     -0.87000000    18.42000000    56.28000000
   H     -2.93000000    17.40000000    55.31000000
   H     -1.94000000    16.11000000    54.62000000
   H     -2.68000000    17.52000000    52.94000000
   H     -0.86000000    17.59000000    53.20000000
   H     -2.62000000    19.72000000    54.11000000
   H     -0.92000000    19.55000000    54.21000000
   H     -1.72000000    19.78000000    52.80000000
   N      1.61000000    14.76000000    57.97000000
   C      3.02000000    14.73000000    58.31000000
   C      3.14000000    14.19000000    59.73000000
   O      2.28000000    14.56000000    60.52000000
   C      3.59000000    16.15000000    58.35000000
   C      5.08000000    16.19000000    58.67000000
   O      5.85000000    15.22000000    58.47000000
   O      5.64000000    17.21000000    59.12000000
   H      0.94000000    14.85000000    58.72000000
   H      3.57000000    14.10000000    57.62000000
   H      3.04000000    16.87000000    58.95000000
   H      3.57000000    16.59000000    57.36000000
   N      4.16000000    13.37000000    59.98000000
   C      4.46000000    12.88000000    61.31000000
   C      5.91000000    12.41000000    61.35000000
   O      6.30000000    11.59000000    60.53000000
   H      4.81000000    13.15000000    59.24000000
   H      3.77000000    12.09000000    61.60000000
   H      4.31000000    13.80000000    61.88000000
   N      6.75000000    12.92000000    62.26000000
   C      8.15000000    12.64000000    62.49000000
   C      8.46000000    11.87000000    63.76000000
   O      7.79000000    11.97000000    64.79000000
   C      8.99000000    13.91000000    62.39000000
   C      8.70000000    14.75000000    61.15000000
   O      8.96000000    14.37000000    59.99000000
   O      8.08000000    15.83000000    61.28000000
   H      6.48000000    13.83000000    62.61000000
   H      8.43000000    11.97000000    61.67000000
   H     10.02000000    13.60000000    62.21000000
   H      8.82000000    14.56000000    63.25000000
   N      9.45000000    10.99000000    63.63000000
   C      9.87000000    10.08000000    64.67000000
   C      9.04000000     8.80000000    64.78000000
   O      8.05000000     8.63000000    64.08000000
   H     10.01000000    10.91000000    62.78000000
   H      9.97000000    10.65000000    65.59000000
   H     10.87000000     9.70000000    64.46000000
   N      9.39000000     7.94000000    65.74000000
   C      8.66000000     6.71000000    65.96000000
   C      9.56000000     5.49000000    65.92000000
   O     10.67000000     5.66000000    66.43000000
   C      7.95000000     6.84000000    67.30000000
   C      7.05000000     8.04000000    67.55000000
   O      7.02000000     5.78000000    67.26000000
   H     10.07000000     8.20000000    66.43000000
   H      7.98000000     6.47000000    65.14000000
   H      8.64000000     6.65000000    68.12000000
   H      6.74000000     5.64000000    68.17000000
   H      6.47000000     7.69000000    68.40000000
   H      7.59000000     8.90000000    67.95000000
   H      6.38000000     8.29000000    66.72000000
   N      9.22000000     4.37000000    65.27000000
   C     10.13000000     3.24000000    65.29000000
   C     11.28000000     3.36000000    64.31000000
   O     12.39000000     2.88000000    64.51000000
   C      9.44000000     1.88000000    65.33000000
   C      8.88000000     1.57000000    63.94000000
   C      8.35000000     1.79000000    66.39000000
   C      8.28000000     0.16000000    63.90000000
   H      8.36000000     4.28000000    64.75000000
   H     10.68000000     3.29000000    66.24000000
   H     10.23000000     1.16000000    65.55000000
   H      9.69000000     1.63000000    63.22000000
   H      8.09000000     2.31000000    63.81000000
   H      8.77000000     1.80000000    67.40000000
   H      7.68000000     2.65000000    66.31000000
   H      7.82000000     0.84000000    66.44000000
   H      7.55000000    -0.01000000    64.69000000
   H      7.72000000     0.03000000    62.98000000
   H      9.12000000    -0.53000000    63.84000000
   N     11.12000000     4.16000000    63.25000000
   C     12.17000000     4.55000000    62.34000000
   C     12.50000000     3.48000000    61.31000000
   O     11.68000000     2.89000000    60.62000000
   C     11.79000000     5.85000000    61.64000000
   C     11.18000000     6.94000000    62.52000000
   O     12.89000000     6.28000000    60.87000000
   H     10.23000000     4.63000000    63.23000000
   H     13.09000000     4.71000000    62.91000000
   H     10.93000000     5.57000000    61.03000000
   H     12.62000000     7.09000000    60.43000000
   H     11.84000000     7.04000000    63.38000000
   H     11.19000000     7.91000000    62.02000000
   H     10.12000000     6.79000000    62.74000000
   N     13.80000000     3.24000000    61.12000000
   C     14.34000000     2.30000000    60.15000000
   C     14.07000000     0.82000000    60.31000000
   O     14.77000000     0.03000000    59.68000000
   C     15.83000000     2.54000000    59.91000000
   C     16.62000000     2.68000000    61.20000000
   O     16.07000000     3.72000000    59.19000000
   H     14.44000000     3.62000000    61.80000000
   H     13.84000000     2.60000000    59.23000000
   H     16.30000000     1.70000000    59.39000000
   H     17.03000000     3.71000000    59.10000000
   H     17.68000000     2.67000000    60.96000000
   H     16.38000000     3.56000000    61.79000000
   H     16.54000000     1.82000000    61.87000000
   N     13.23000000     0.43000000    61.28000000
   C     13.05000000    -0.98000000    61.58000000
   C     11.58000000    -1.35000000    61.49000000
   O     10.67000000    -0.53000000    61.53000000
   C     13.65000000    -1.30000000    62.95000000
   C     13.29000000    -0.33000000    64.07000000
   C     13.72000000    -0.78000000    65.46000000
   C     13.20000000     0.29000000    66.43000000
   N     13.84000000     0.14000000    67.75000000
   H     12.65000000     1.16000000    61.65000000
   H     13.57000000    -1.55000000    60.82000000
   H     14.73000000    -1.41000000    62.86000000
   H     13.24000000    -2.23000000    63.35000000
   H     12.21000000    -0.23000000    64.05000000
   H     13.73000000     0.65000000    63.87000000
   H     14.81000000    -0.73000000    65.47000000
   H     13.31000000    -1.76000000    65.69000000
   H     12.13000000     0.14000000    66.58000000
   H     13.43000000     1.28000000    66.03000000
   H     14.84000000     0.01000000    67.80000000
   H     13.62000000     0.89000000    68.39000000
   H     13.42000000    -0.57000000    68.33000000
   N     11.19000000    -2.63000000    61.40000000
   C      9.83000000    -3.10000000    61.25000000
   C      9.43000000    -3.32000000    59.79000000
   O     10.21000000    -3.80000000    58.97000000
   C      9.74000000    -4.37000000    62.08000000
   C      9.78000000    -4.06000000    63.57000000
   C      9.72000000    -5.29000000    64.47000000
   O      8.67000000    -5.96000000    64.50000000
   O     10.75000000    -5.52000000    65.14000000
   H     11.86000000    -3.37000000    61.52000000
   H      9.18000000    -2.35000000    61.70000000
   H     10.48000000    -5.13000000    61.80000000
   H      8.77000000    -4.81000000    61.84000000
   H      9.07000000    -3.25000000    63.75000000
   H     10.77000000    -3.61000000    63.71000000
   N      8.20000000    -2.95000000    59.43000000
   C      7.02000000    -2.52000000    60.14000000
   H      6.18500000    -3.17300000    59.88500000
   H      7.20400000    -2.56800000    61.21300000
   H      6.77800000    -1.49500000    59.85700000
   H      8.11000000    -2.93000000    58.43000000
  Ca      8.14000000    16.59000000    58.67000000
   O      8.27000000    18.84000000    60.29000000
   H      8.60000000    18.91000000    61.18000000
   H      7.49000000    19.40000000    60.28000000
   O      7.40000000    19.40000000    57.44000000
   H      6.94000000    19.87000000    58.13000000
   H      8.22000000    19.87000000    57.33000000
   O     10.66000000    16.79000000    59.51000000
   H     10.88000000    17.12000000    60.37000000
   H     11.21000000    16.01000000    59.40000000
   O      9.82000000    17.34000000    56.55000000
   H     10.75000000    17.13000000    56.63000000
   H      9.81000000    18.27000000    56.31000000
   O      6.65000000    16.33000000    56.18000000
   H      6.50000000    16.24000000    55.24000000
   H      6.46000000    15.46000000    56.54000000
   O      8.73000000    14.51000000    56.95000000
   H      8.47000000    13.72000000    56.48000000
   H      9.48000000    14.85000000    56.46000000

Ca 1.00



