%chk=loop1.apoCaM-CA-Ng.Init293.run86.water5.chk
%nprocshared=20
%mem=10GB
%nosave
#b3lyp/svp scf=(tight,noincore,xqc) Test 
#IOP(5/87=12) Density=Current Pop=(MK,readradii) iop(6/33=2) iop(6/42=6)

loop1.apoCaM-CA-Ng.Init293.run86.water5 

   0  1 
   C     78.75000000   114.96000000    23.81000000
   C     79.61000000   116.21000000    23.67000000
   O     79.59000000   116.86000000    22.63000000
   H     77.80500000   115.10900000    23.28700000
   H     79.27400000   114.10800000    23.37700000
   H     78.55400000   114.76900000    24.86500000
   N     80.60000000   116.39000000    24.55000000
   C     81.51000000   117.52000000    24.49000000
   C     82.67000000   117.35000000    23.52000000
   O     83.14000000   118.34000000    22.96000000
   C     81.90000000   117.86000000    25.92000000
   C     82.65000000   116.69000000    26.54000000
   O     82.09000000   115.62000000    26.87000000
   O     83.89000000   116.72000000    26.74000000
   H     80.71000000   115.80000000    25.36000000
   H     80.99000000   118.45000000    24.23000000
   H     80.98000000   118.09000000    26.45000000
   H     82.56000000   118.73000000    25.98000000
   N     83.14000000   116.12000000    23.29000000
   C     84.31000000   115.82000000    22.49000000
   C     84.07000000   116.25000000    21.05000000
   O     82.98000000   116.09000000    20.50000000
   C     84.74000000   114.37000000    22.70000000
   C     84.76000000   113.72000000    24.08000000
   C     85.78000000   114.42000000    24.98000000
   C     85.75000000   113.80000000    26.37000000
   N     84.45000000   113.79000000    27.06000000
   H     82.50000000   115.37000000    23.50000000
   H     85.06000000   116.47000000    22.93000000
   H     85.78000000   114.30000000    22.36000000
   H     84.21000000   113.66000000    22.07000000
   H     84.99000000   112.67000000    23.90000000
   H     83.80000000   113.82000000    24.58000000
   H     85.58000000   115.49000000    25.02000000
   H     86.80000000   114.33000000    24.61000000
   H     86.47000000   114.49000000    26.81000000
   H     86.19000000   112.80000000    26.42000000
   H     84.48000000   113.64000000    28.06000000
   H     83.92000000   114.64000000    26.90000000
   H     83.88000000   113.03000000    26.73000000
   N     85.01000000   116.63000000    20.18000000
   C     86.43000000   116.77000000    20.42000000
   C     86.80000000   118.13000000    20.99000000
   O     87.62000000   118.19000000    21.90000000
   C     87.23000000   116.55000000    19.14000000
   C     86.67000000   117.39000000    18.00000000
   O     87.09000000   118.55000000    17.76000000
   O     85.91000000   116.83000000    17.18000000
   H     84.66000000   116.84000000    19.26000000
   H     86.59000000   115.96000000    21.13000000
   H     87.21000000   115.47000000    19.01000000
   H     88.25000000   116.79000000    19.45000000
   N     86.05000000   119.22000000    20.79000000
   C     84.78000000   119.46000000    20.14000000
   C     84.19000000   120.86000000    20.19000000
   O     84.92000000   121.83000000    20.30000000
   H     86.48000000   120.04000000    21.22000000
   H     83.96000000   118.87000000    20.56000000
   H     84.74000000   119.19000000    19.08000000
   N     82.88000000   121.09000000    20.04000000
   C     81.78000000   120.16000000    19.84000000
   C     80.56000000   120.63000000    20.62000000
   O     79.91000000   121.63000000    20.32000000
   C     81.43000000   119.89000000    18.38000000
   C     82.58000000   119.27000000    17.61000000
   O     82.86000000   118.06000000    17.78000000
   O     83.29000000   119.95000000    16.83000000
   H     82.67000000   122.04000000    19.77000000
   H     82.05000000   119.27000000    20.41000000
   H     81.15000000   120.77000000    17.80000000
   H     80.62000000   119.17000000    18.28000000
   N     80.16000000   119.83000000    21.60000000
   C     78.98000000   119.99000000    22.44000000
   C     77.63000000   119.69000000    21.81000000
   O     76.81000000   119.02000000    22.44000000
   H     80.68000000   118.99000000    21.78000000
   H     78.92000000   121.00000000    22.86000000
   H     79.03000000   119.31000000    23.28000000
   N     77.48000000   119.98000000    20.52000000
   C     76.39000000   119.64000000    19.62000000
   C     76.64000000   118.32000000    18.90000000
   O     77.80000000   118.00000000    18.65000000
   C     76.06000000   120.72000000    18.60000000
   C     77.21000000   121.17000000    17.70000000
   O     75.63000000   121.91000000    19.22000000
   H     78.27000000   120.34000000    20.01000000
   H     75.51000000   119.52000000    20.26000000
   H     75.23000000   120.36000000    18.00000000
   H     75.78000000   121.89000000    20.17000000
   H     76.74000000   121.94000000    17.08000000
   H     77.98000000   121.57000000    18.36000000
   H     77.48000000   120.34000000    17.06000000
   N     75.61000000   117.60000000    18.46000000
   C     75.83000000   116.35000000    17.75000000
   C     74.88000000   116.21000000    16.57000000
   O     73.67000000   116.36000000    16.71000000
   C     75.66000000   115.22000000    18.76000000
   C     75.92000000   113.91000000    18.03000000
   C     74.36000000   115.12000000    19.55000000
   C     76.35000000   112.78000000    18.96000000
   H     74.67000000   117.92000000    18.66000000
   H     76.82000000   116.27000000    17.32000000
   H     76.46000000   115.31000000    19.50000000
   H     76.72000000   114.17000000    17.34000000
   H     75.03000000   113.62000000    17.47000000
   H     73.46000000   115.08000000    18.94000000
   H     74.32000000   114.24000000    20.18000000
   H     74.53000000   115.90000000    20.29000000
   H     76.43000000   111.90000000    18.33000000
   H     77.31000000   112.98000000    19.44000000
   H     75.60000000   112.58000000    19.72000000
   N     75.34000000   115.84000000    15.37000000
   C     74.48000000   115.62000000    14.22000000
   C     74.82000000   114.33000000    13.50000000
   O     74.26000000   114.08000000    12.43000000
   C     74.63000000   116.83000000    13.31000000
   C     76.06000000   116.91000000    12.78000000
   O     74.49000000   118.06000000    13.99000000
   H     76.33000000   115.80000000    15.19000000
   H     73.43000000   115.63000000    14.52000000
   H     73.88000000   116.77000000    12.51000000
   H     73.65000000   117.98000000    14.44000000
   H     76.29000000   116.04000000    12.16000000
   H     76.18000000   117.76000000    12.11000000
   H     76.80000000   116.92000000    13.58000000
   N     75.71000000   113.51000000    14.07000000
   C     76.33000000   112.34000000    13.47000000
   C     77.32000000   112.61000000    12.34000000
   O     77.41000000   113.73000000    11.85000000
   C     75.30000000   111.30000000    13.06000000
   C     74.15000000   111.09000000    14.03000000
   O     75.93000000   110.03000000    13.04000000
   H     76.09000000   113.84000000    14.94000000
   H     76.91000000   111.98000000    14.33000000
   H     74.83000000   111.54000000    12.11000000
   H     75.42000000   109.48000000    12.44000000
   H     73.63000000   110.19000000    13.73000000
   H     74.47000000   111.01000000    15.07000000
   H     73.48000000   111.95000000    13.91000000
   N     78.03000000   111.54000000    11.96000000
   C     78.92000000   111.50000000    10.82000000
   C     80.38000000   111.14000000    11.06000000
   O     81.07000000   111.03000000    10.06000000
   C     78.31000000   110.60000000     9.74000000
   C     77.26000000   111.42000000     8.99000000
   C     76.62000000   110.50000000     7.95000000
   C     75.81000000   111.45000000     7.07000000
   N     74.53000000   111.71000000     7.76000000
   H     77.80000000   110.69000000    12.45000000
   H     79.08000000   112.53000000    10.52000000
   H     77.79000000   109.71000000    10.06000000
   H     79.08000000   110.50000000     8.97000000
   H     77.77000000   112.31000000     8.62000000
   H     76.50000000   111.71000000     9.71000000
   H     76.02000000   109.76000000     8.48000000
   H     77.43000000   110.05000000     7.38000000
   H     75.54000000   111.03000000     6.10000000
   H     76.41000000   112.33000000     6.83000000
   H     73.92000000   112.30000000     7.22000000
   H     74.09000000   110.86000000     8.07000000
   H     74.65000000   112.33000000     8.54000000
   N     80.96000000   111.09000000    12.26000000
   C     80.48000000   110.82000000    13.60000000
   C     79.45000000   109.71000000    13.75000000
   O     78.54000000   109.75000000    14.58000000
   C     80.28000000   112.11000000    14.40000000
   C     80.11000000   111.99000000    15.91000000
   C     80.65000000   113.25000000    16.57000000
   O     81.88000000   113.42000000    16.73000000
   O     79.84000000   114.16000000    16.85000000
   H     81.97000000   111.00000000    12.17000000
   H     81.32000000   110.34000000    14.09000000
   H     79.45000000   112.71000000    14.02000000
   H     81.19000000   112.69000000    14.24000000
   H     80.60000000   111.12000000    16.35000000
   H     79.03000000   111.94000000    16.04000000
   N     79.64000000   108.69000000    12.92000000
   C     78.71000000   107.58000000    12.85000000
   H     77.79700000   107.90300000    12.35100000
   H     79.16100000   106.76200000    12.28800000
   H     78.47200000   107.24100000    13.85800000
   H     80.58000000   108.71000000    12.55000000
  Ca     81.64000000   115.59100000    18.13000000
   O     82.29000000   116.14100000    15.43000000
   H     82.67000000   117.01100000    15.56000000
   H     82.16000000   116.07100000    14.48000000
   O     79.68000000   117.08100000    16.93000000
   H     79.68000000   117.56100000    16.10000000
   H     78.94000000   117.44100000    17.42000000
   O     79.81000000   116.53100000    20.01000000
   H     78.96000000   116.80100000    19.69000000
   H     79.78000000   116.69100000    20.96000000
   O     81.38000000   113.50100000    19.99000000
   H     81.35000000   113.80100000    20.89000000
   H     81.52000000   112.55100000    20.06000000
   O     84.22000000   114.94100000    17.81000000
   H     84.71000000   114.15100000    17.57000000
   H     84.83000000   115.66100000    17.65000000

Ca 1.00



