%chk=loop2.apoCaM-CA-Ng.Init293.run12.water6.chk
%nprocshared=20
%mem=10GB
%nosave
#b3lyp/svp scf=(tight,noincore,xqc) Test 
#IOP(5/87=12) Density=Current Pop=(MK,readradii) iop(6/33=2) iop(6/42=6)

loop2.apoCaM-CA-Ng.Init293.run12.water6 

   -2  1 
   C     37.15000000     5.12000000    29.76000000
   C     36.14000000     4.01000000    29.50000000
   O     35.36000000     3.68000000    30.39000000
   H     38.04700000     4.94000000    29.16800000
   H     36.71700000     6.08000000    29.47800000
   H     37.41000000     5.13500000    30.81800000
   N     36.23000000     3.37000000    28.34000000
   C     35.43000000     2.27000000    27.83000000
   C     35.59000000     1.06000000    28.74000000
   O     34.58000000     0.57000000    29.23000000
   C     35.84000000     1.96000000    26.39000000
   C     34.73000000     1.43000000    25.50000000
   O     33.56000000     1.86000000    25.53000000
   O     35.01000000     0.52000000    24.69000000
   H     36.86000000     3.75000000    27.65000000
   H     34.37000000     2.49000000    27.83000000
   H     36.65000000     1.23000000    26.41000000
   H     36.23000000     2.88000000    25.95000000
   N     36.78000000     0.72000000    29.25000000
   C     37.10000000    -0.29000000    30.24000000
   C     36.48000000    -0.18000000    31.63000000
   O     36.32000000    -1.20000000    32.30000000
   C     37.17000000    -1.67000000    29.59000000
   H     37.58000000     1.22000000    28.90000000
   H     38.15000000    -0.08000000    30.45000000
   H     37.86000000    -1.81000000    28.76000000
   H     37.39000000    -2.46000000    30.31000000
   H     36.16000000    -1.90000000    29.24000000
   N     35.94000000     1.00000000    31.93000000
   C     35.04000000     1.23000000    33.04000000
   C     33.72000000     0.47000000    32.96000000
   O     33.12000000     0.08000000    33.95000000
   C     35.68000000     1.09000000    34.42000000
   C     37.11000000     1.61000000    34.31000000
   O     38.04000000     0.87000000    34.69000000
   O     37.34000000     2.80000000    34.00000000
   H     36.24000000     1.83000000    31.45000000
   H     34.78000000     2.29000000    33.03000000
   H     35.69000000     0.05000000    34.75000000
   H     35.17000000     1.55000000    35.26000000
   N     33.12000000     0.47000000    31.77000000
   C     31.72000000     0.12000000    31.60000000
   C     30.75000000     1.01000000    32.36000000
   O     30.88000000     2.23000000    32.32000000
   H     33.65000000     1.01000000    31.10000000
   H     31.75000000    -0.90000000    31.99000000
   H     31.47000000     0.13000000    30.54000000
   N     29.71000000     0.46000000    33.00000000
   C     28.67000000     1.20000000    33.69000000
   C     27.82000000     2.14000000    32.86000000
   O     27.47000000     3.22000000    33.32000000
   C     29.27000000     1.76000000    34.98000000
   C     28.31000000     1.92000000    36.15000000
   N     27.15000000     2.54000000    35.93000000
   O     28.62000000     1.50000000    37.26000000
   H     29.72000000    -0.55000000    33.07000000
   H     27.90000000     0.48000000    33.96000000
   H     29.81000000     2.69000000    34.77000000
   H     30.03000000     1.12000000    35.42000000
   H     26.90000000     2.87000000    35.01000000
   H     26.46000000     2.59000000    36.67000000
   N     27.50000000     1.78000000    31.61000000
   C     26.82000000     2.60000000    30.63000000
   C     27.80000000     3.53000000    29.93000000
   O     27.56000000     3.96000000    28.81000000
   H     27.82000000     0.89000000    31.25000000
   H     26.11000000     3.29000000    31.08000000
   H     26.28000000     1.96000000    29.93000000
   N     28.91000000     3.86000000    30.61000000
   C     29.92000000     4.76000000    30.11000000
   C     30.32000000     5.73000000    31.21000000
   O     30.21000000     5.45000000    32.41000000
   C     31.20000000     4.09000000    29.61000000
   C     30.81000000     3.15000000    28.46000000
   O     32.09000000     5.01000000    29.04000000
   H     29.01000000     3.39000000    31.50000000
   H     29.44000000     5.38000000    29.35000000
   H     31.63000000     3.51000000    30.43000000
   H     32.01000000     4.77000000    28.11000000
   H     30.19000000     2.31000000    28.75000000
   H     30.43000000     3.73000000    27.62000000
   H     31.68000000     2.56000000    28.15000000
   N     30.69000000     6.97000000    30.87000000
   C     31.10000000     8.06000000    31.72000000
   C     32.34000000     7.69000000    32.52000000
   O     33.20000000     6.96000000    32.04000000
   C     31.32000000     9.34000000    30.91000000
   C     31.40000000    10.52000000    31.89000000
   C     32.45000000     9.27000000    29.90000000
   C     31.12000000    11.92000000    31.37000000
   H     30.77000000     7.13000000    29.87000000
   H     30.35000000     8.05000000    32.50000000
   H     30.36000000     9.45000000    30.41000000
   H     32.36000000    10.59000000    32.40000000
   H     30.55000000    10.44000000    32.57000000
   H     32.34000000     8.41000000    29.23000000
   H     32.62000000    10.16000000    29.29000000
   H     33.40000000     9.13000000    30.42000000
   H     30.14000000    11.87000000    30.87000000
   H     31.01000000    12.60000000    32.22000000
   H     31.91000000    12.21000000    30.67000000
   N     32.43000000     8.14000000    33.78000000
   C     33.62000000     8.13000000    34.60000000
   C     33.44000000     8.42000000    36.08000000
   O     34.08000000     9.29000000    36.67000000
   C     34.68000000     9.06000000    34.00000000
   C     36.09000000     8.83000000    34.52000000
   O     36.49000000     7.65000000    34.42000000
   O     36.80000000     9.75000000    34.98000000
   H     31.70000000     8.76000000    34.10000000
   H     34.02000000     7.12000000    34.49000000
   H     34.36000000    10.09000000    34.11000000
   H     34.76000000     8.90000000    32.93000000
   N     32.43000000     7.82000000    36.71000000
   C     32.31000000     7.75000000    38.15000000
   C     31.64000000     8.88000000    38.92000000
   O     32.05000000     9.18000000    40.04000000
   C     31.50000000     6.51000000    38.51000000
   C     32.09000000     5.20000000    38.07000000
   C     31.56000000     4.47000000    37.01000000
   C     33.19000000     4.69000000    38.79000000
   C     32.27000000     3.35000000    36.56000000
   C     33.79000000     3.48000000    38.43000000
   C     33.29000000     2.78000000    37.32000000
   H     31.84000000     7.20000000    36.17000000
   H     33.31000000     7.64000000    38.58000000
   H     30.54000000     6.61000000    37.99000000
   H     31.22000000     6.47000000    39.56000000
   H     30.73000000     4.87000000    36.45000000
   H     33.60000000     5.20000000    39.65000000
   H     32.02000000     2.90000000    35.61000000
   H     34.54000000     3.06000000    39.07000000
   H     33.75000000     1.85000000    37.00000000
   N     30.54000000     9.50000000    38.50000000
   C     29.80000000     9.26000000    37.27000000
   C     30.02000000    10.26000000    36.14000000
   O     29.48000000    10.11000000    35.04000000
   C     28.33000000     9.22000000    37.68000000
   C     28.28000000    10.10000000    38.92000000
   C     29.71000000    10.17000000    39.47000000
   H     30.03000000     8.28000000    36.86000000
   H     27.64000000     9.53000000    36.90000000
   H     28.08000000     8.19000000    37.96000000
   H     28.07000000    11.13000000    38.64000000
   H     27.57000000     9.73000000    39.66000000
   H     29.95000000    11.23000000    39.45000000
   H     29.75000000     9.79000000    40.50000000
   N     30.76000000    11.34000000    36.37000000
   C     30.87000000    12.41000000    35.39000000
   C     32.32000000    12.85000000    35.22000000
   O     33.25000000    12.30000000    35.81000000
   C     30.04000000    13.59000000    35.90000000
   C     28.53000000    13.36000000    35.93000000
   C     27.76000000    14.19000000    36.95000000
   O     26.90000000    15.03000000    36.62000000
   O     27.93000000    14.08000000    38.18000000
   H     31.28000000    11.37000000    37.23000000
   H     30.51000000    12.14000000    34.40000000
   H     30.22000000    14.48000000    35.29000000
   H     30.38000000    13.82000000    36.91000000
   H     28.33000000    12.31000000    36.13000000
   H     28.32000000    13.57000000    34.88000000
   N     32.55000000    13.71000000    34.23000000
   C     33.88000000    13.91000000    33.70000000
   H     34.58700000    13.28700000    34.24900000
   H     33.89700000    13.63500000    32.64600000
   H     34.16100000    14.95800000    33.80700000
   H     31.76000000    14.17000000    33.78000000
  Ca     37.25000000     5.26000000    34.79000000
   O     35.42000000     5.24000000    32.57000000
   H     34.94000000     6.01000000    32.26000000
   H     35.23000000     4.57000000    31.92000000
   O     39.20000000     6.67000000    35.79000000
   H     40.11000000     6.40000000    35.67000000
   H     39.25000000     7.46000000    36.31000000
   O     36.46000000     6.31000000    37.36000000
   H     37.21000000     6.85000000    37.58000000
   H     36.26000000     5.83000000    38.16000000
   O     38.99000000     5.87000000    32.90000000
   H     39.70000000     5.37000000    32.49000000
   H     39.04000000     6.74000000    32.49000000
   O     38.55000000     3.80000000    36.63000000
   H     39.04000000     4.15000000    37.37000000
   H     39.13000000     3.15000000    36.23000000
   O     34.61000000     4.64000000    35.36000000
   H     34.04000000     4.39000000    34.63000000
   H     34.09000000     4.45000000    36.14000000

Ca 1.00



