%chk=loop4.holoCaM.run67.water2.chk
%nprocshared=20
%mem=10GB
%nosave
#b3lyp/svp scf=(tight,noincore,xqc) Test 
#IOP(5/87=12) Density=Current Pop=(MK,readradii) iop(6/33=2) iop(6/42=6)

loop4.holoCaM.run67.water2 

   -3  1 
   C     91.66000000    64.70000000    16.43000000
   C     91.81000000    64.31000000    17.89000000
   O     91.14000000    64.91000000    18.73000000
   H     91.05900000    65.60600000    16.35700000
   H     92.64400000    64.88200000    15.99900000
   H     91.16800000    63.89300000    15.88600000
   N     92.59000000    63.28000000    18.24000000
   C     92.79000000    62.77000000    19.58000000
   C     93.79000000    63.64000000    20.32000000
   O     94.91000000    63.78000000    19.82000000
   C     93.17000000    61.29000000    19.65000000
   C     93.45000000    60.71000000    21.02000000
   O     94.03000000    59.61000000    21.12000000
   O     93.18000000    61.43000000    22.01000000
   H     93.15000000    62.97000000    17.46000000
   H     91.82000000    62.88000000    20.06000000
   H     93.99000000    61.15000000    18.95000000
   H     92.36000000    60.77000000    19.14000000
   N     93.40000000    64.19000000    21.47000000
   C     94.19000000    65.15000000    22.22000000
   C     94.61000000    64.62000000    23.58000000
   O     95.02000000    65.42000000    24.42000000
   C     93.56000000    66.54000000    22.29000000
   C     92.18000000    66.63000000    22.93000000
   C     93.44000000    67.00000000    20.84000000
   C     91.76000000    68.00000000    23.44000000
   H     92.45000000    64.00000000    21.76000000
   H     95.11000000    65.26000000    21.64000000
   H     94.27000000    67.16000000    22.84000000
   H     92.13000000    65.97000000    23.80000000
   H     91.41000000    66.32000000    22.23000000
   H     94.40000000    66.98000000    20.32000000
   H     92.70000000    66.36000000    20.37000000
   H     93.21000000    68.06000000    20.79000000
   H     92.51000000    68.41000000    24.11000000
   H     91.59000000    68.75000000    22.66000000
   H     90.87000000    67.92000000    24.07000000
   N     94.58000000    63.30000000    23.78000000
   C     95.26000000    62.77000000    24.94000000
   C     96.00000000    61.49000000    24.57000000
   O     97.07000000    61.27000000    25.15000000
   C     94.38000000    62.57000000    26.16000000
   C     92.89000000    62.26000000    26.03000000
   O     92.20000000    62.45000000    27.06000000
   O     92.45000000    61.76000000    24.98000000
   H     94.11000000    62.70000000    23.12000000
   H     96.09000000    63.41000000    25.25000000
   H     94.64000000    63.41000000    26.82000000
   H     94.68000000    61.70000000    26.75000000
   N     95.66000000    60.80000000    23.48000000
   C     96.40000000    59.61000000    23.10000000
   C     95.80000000    58.26000000    23.48000000
   O     96.56000000    57.31000000    23.65000000
   H     94.85000000    60.99000000    22.91000000
   H     97.44000000    59.60000000    23.44000000
   H     96.49000000    59.69000000    22.02000000
   N     94.49000000    58.22000000    23.73000000
   C     93.75000000    56.99000000    23.93000000
   C     93.31000000    56.36000000    22.62000000
   O     92.73000000    55.27000000    22.61000000
   C     92.64000000    57.18000000    24.96000000
   C     91.56000000    58.22000000    24.70000000
   O     90.77000000    58.57000000    25.60000000
   O     91.52000000    58.77000000    23.58000000
   H     93.98000000    59.06000000    23.52000000
   H     94.42000000    56.24000000    24.35000000
   H     93.05000000    57.40000000    25.95000000
   H     92.11000000    56.23000000    25.08000000
   N     93.48000000    57.01000000    21.46000000
   C     93.09000000    56.45000000    20.19000000
   C     91.61000000    56.60000000    19.85000000
   O     91.17000000    56.12000000    18.81000000
   H     94.02000000    57.86000000    21.46000000
   H     93.23000000    55.37000000    20.27000000
   H     93.65000000    56.90000000    19.37000000
   N     90.78000000    57.22000000    20.69000000
   C     89.39000000    57.43000000    20.35000000
   C     88.99000000    58.87000000    20.64000000
   O     89.70000000    59.66000000    21.26000000
   C     88.47000000    56.39000000    21.00000000
   C     88.42000000    56.56000000    22.52000000
   C     87.61000000    55.49000000    23.22000000
   N     87.71000000    55.38000000    24.54000000
   O     86.86000000    54.78000000    22.56000000
   H     91.18000000    57.72000000    21.48000000
   H     89.31000000    57.39000000    19.27000000
   H     88.89000000    55.43000000    20.72000000
   H     87.44000000    56.50000000    20.65000000
   H     87.86000000    57.44000000    22.84000000
   H     89.43000000    56.65000000    22.92000000
   H     88.21000000    56.05000000    25.11000000
   H     87.42000000    54.52000000    24.98000000
   N     87.85000000    59.32000000    20.12000000
   C     87.31000000    60.67000000    20.13000000
   C     86.12000000    60.70000000    21.09000000
   O     85.22000000    59.88000000    20.98000000
   C     87.16000000    61.28000000    18.74000000
   C     88.45000000    61.71000000    18.04000000
   C     86.38000000    60.43000000    17.74000000
   H     87.26000000    58.58000000    19.78000000
   H     88.11000000    61.27000000    20.56000000
   H     86.58000000    62.20000000    18.74000000
   H     89.06000000    60.88000000    17.68000000
   H     88.24000000    62.23000000    17.11000000
   H     89.07000000    62.29000000    18.73000000
   H     85.38000000    60.25000000    18.12000000
   H     86.41000000    60.85000000    16.73000000
   H     86.83000000    59.44000000    17.69000000
   N     86.09000000    61.68000000    21.99000000
   C     84.94000000    62.10000000    22.76000000
   C     84.22000000    63.20000000    21.99000000
   O     84.74000000    63.53000000    20.93000000
   C     85.37000000    62.55000000    24.16000000
   C     85.82000000    64.00000000    24.27000000
   N     87.04000000    64.41000000    23.90000000
   O     85.03000000    64.79000000    24.77000000
   H     86.86000000    62.33000000    21.88000000
   H     84.27000000    61.28000000    23.03000000
   H     86.21000000    61.92000000    24.44000000
   H     84.59000000    62.28000000    24.86000000
   H     87.74000000    63.84000000    23.44000000
   H     87.39000000    65.33000000    24.10000000
   N     83.12000000    63.75000000    22.52000000
   C     82.30000000    64.61000000    21.70000000
   C     83.06000000    65.88000000    21.33000000
   O     82.98000000    66.43000000    20.24000000
   C     80.95000000    64.94000000    22.34000000
   C     79.90000000    65.48000000    21.41000000
   C     79.49000000    64.68000000    20.33000000
   C     79.71000000    66.86000000    21.27000000
   C     78.71000000    65.25000000    19.32000000
   C     79.02000000    67.46000000    20.20000000
   C     78.42000000    66.63000000    19.23000000
   O     77.66000000    67.11000000    18.21000000
   H     82.66000000    63.20000000    23.24000000
   H     82.09000000    64.20000000    20.71000000
   H     81.11000000    65.56000000    23.23000000
   H     80.47000000    64.05000000    22.74000000
   H     79.70000000    63.64000000    20.16000000
   H     80.21000000    67.54000000    21.94000000
   H     78.41000000    64.57000000    18.54000000
   H     78.86000000    68.52000000    20.16000000
   H     77.65000000    68.06000000    18.05000000
   N     83.86000000    66.37000000    22.27000000
   C     84.61000000    67.59000000    22.05000000
   C     85.77000000    67.46000000    21.07000000
   O     86.20000000    68.50000000    20.58000000
   C     85.00000000    68.28000000    23.35000000
   C     83.77000000    68.91000000    24.00000000
   C     84.08000000    69.42000000    25.40000000
   O     84.34000000    70.64000000    25.46000000
   O     84.01000000    68.66000000    26.39000000
   H     83.99000000    65.94000000    23.17000000
   H     83.88000000    68.30000000    21.65000000
   H     85.61000000    69.17000000    23.19000000
   H     85.47000000    67.52000000    23.97000000
   H     83.03000000    68.12000000    24.10000000
   H     83.42000000    69.73000000    23.36000000
   N     86.30000000    66.25000000    20.84000000
   C     87.22000000    66.04000000    19.74000000
   C     86.41000000    65.84000000    18.47000000
   O     86.87000000    66.29000000    17.42000000
   C     87.99000000    64.75000000    20.02000000
   C     88.98000000    65.01000000    21.15000000
   C     89.49000000    63.71000000    21.76000000
   O     88.67000000    62.89000000    22.22000000
   O     90.70000000    63.46000000    21.97000000
   H     85.89000000    65.48000000    21.34000000
   H     87.85000000    66.91000000    19.63000000
   H     88.47000000    64.34000000    19.13000000
   H     87.28000000    63.97000000    20.29000000
   H     88.48000000    65.61000000    21.91000000
   H     89.75000000    65.70000000    20.81000000
   N     85.32000000    65.08000000    18.52000000
   C     84.62000000    64.64000000    17.32000000
   H     83.71800000    65.23800000    17.18600000
   H     85.26900000    64.76500000    16.45400000
   H     84.34700000    63.59000000    17.42200000
   H     85.07000000    64.76000000    19.45000000
  Ca     90.75000000    61.22000000    23.18000000
   O     88.71000000    59.47000000    23.98000000
   H     89.37000000    58.94000000    24.42000000
   H     87.94000000    59.41000000    24.55000000
   O     89.74000000    62.45000000    25.38000000
   H     89.34000000    63.30000000    25.57000000
   H     90.53000000    62.43000000    25.93000000

Ca 1.00



