%chk=loop1.apoCaM-CA-Ng.Init293.run98.water5.chk
%nprocshared=20
%mem=10GB
%nosave
#b3lyp/svp scf=(tight,noincore,xqc) Test 
#IOP(5/87=12) Density=Current Pop=(MK,readradii) iop(6/33=2) iop(6/42=6)

loop1.apoCaM-CA-Ng.Init293.run98.water5 

   0  1 
   C     64.14000000   112.51000000    35.85000000
   C     63.21000000   113.71000000    36.01000000
   O     62.58000000   114.17000000    35.06000000
   H     65.07200000   112.70000000    36.38200000
   H     63.66200000   111.62200000    36.26300000
   H     64.35100000   112.35200000    34.79200000
   N     63.12000000   114.27000000    37.21000000
   C     62.21000000   115.34000000    37.59000000
   C     62.84000000   116.72000000    37.46000000
   O     62.11000000   117.69000000    37.62000000
   C     61.71000000   115.17000000    39.03000000
   C     62.77000000   115.09000000    40.11000000
   O     62.62000000   115.81000000    41.12000000
   O     63.76000000   114.33000000    39.96000000
   H     63.74000000   114.02000000    37.97000000
   H     61.38000000   115.34000000    36.89000000
   H     61.27000000   114.18000000    39.08000000
   H     60.99000000   115.96000000    39.27000000
   N     64.14000000   116.82000000    37.19000000
   C     64.99000000   117.99000000    37.14000000
   C     65.15000000   118.74000000    35.82000000
   O     65.04000000   118.14000000    34.76000000
   C     66.36000000   117.63000000    37.70000000
   C     66.39000000   116.91000000    39.04000000
   C     65.75000000   117.63000000    40.23000000
   C     66.01000000   116.95000000    41.57000000
   N     65.39000000   115.64000000    41.79000000
   H     64.63000000   115.98000000    36.91000000
   H     64.51000000   118.69000000    37.84000000
   H     66.95000000   118.52000000    37.94000000
   H     66.90000000   117.08000000    36.93000000
   H     67.43000000   116.75000000    39.31000000
   H     65.84000000   115.96000000    38.98000000
   H     64.68000000   117.58000000    40.06000000
   H     66.12000000   118.64000000    40.40000000
   H     65.84000000   117.64000000    42.40000000
   H     67.10000000   116.91000000    41.55000000
   H     65.72000000   114.96000000    41.13000000
   H     65.51000000   115.32000000    42.74000000
   H     64.40000000   115.74000000    41.61000000
   N     65.28000000   120.06000000    35.78000000
   C     65.32000000   120.99000000    36.89000000
   C     64.07000000   121.80000000    37.20000000
   O     64.08000000   122.56000000    38.17000000
   C     66.56000000   121.86000000    36.72000000
   C     67.81000000   121.00000000    36.58000000
   O     68.30000000   120.54000000    37.63000000
   O     68.46000000   120.99000000    35.51000000
   H     65.52000000   120.50000000    34.90000000
   H     65.54000000   120.44000000    37.81000000
   H     66.63000000   122.53000000    37.57000000
   H     66.48000000   122.51000000    35.85000000
   N     62.90000000   121.59000000    36.60000000
   C     62.45000000   120.55000000    35.70000000
   C     61.13000000   120.93000000    35.05000000
   O     60.63000000   122.04000000    35.22000000
   H     62.25000000   122.36000000    36.59000000
   H     62.30000000   119.64000000    36.28000000
   H     63.22000000   120.37000000    34.94000000
   N     60.60000000   120.04000000    34.22000000
   C     61.07000000   118.69000000    33.97000000
   C     59.94000000   117.69000000    34.13000000
   O     58.79000000   118.12000000    34.15000000
   C     61.64000000   118.52000000    32.57000000
   C     62.61000000   119.53000000    31.97000000
   O     63.80000000   119.54000000    32.36000000
   O     62.17000000   120.33000000    31.12000000
   H     59.66000000   120.26000000    33.89000000
   H     61.84000000   118.42000000    34.69000000
   H     60.70000000   118.46000000    32.02000000
   H     62.09000000   117.52000000    32.53000000
   N     60.29000000   116.42000000    34.36000000
   C     59.44000000   115.26000000    34.21000000
   C     59.43000000   114.53000000    32.87000000
   O     58.76000000   113.51000000    32.72000000
   H     61.27000000   116.21000000    34.45000000
   H     58.44000000   115.54000000    34.54000000
   H     59.76000000   114.40000000    34.80000000
   N     60.17000000   115.00000000    31.86000000
   C     60.44000000   114.37000000    30.59000000
   C     61.95000000   114.29000000    30.38000000
   O     62.68000000   115.06000000    30.99000000
   C     59.73000000   115.03000000    29.41000000
   C     58.22000000   115.07000000    29.61000000
   O     59.82000000   114.17000000    28.30000000
   H     60.76000000   115.80000000    32.06000000
   H     60.15000000   113.32000000    30.61000000
   H     60.04000000   116.05000000    29.20000000
   H     58.99000000   114.24000000    27.82000000
   H     57.65000000   115.77000000    29.00000000
   H     57.84000000   114.05000000    29.58000000
   H     58.05000000   115.47000000    30.61000000
   N     62.49000000   113.35000000    29.59000000
   C     63.88000000   113.25000000    29.19000000
   C     64.03000000   112.73000000    27.77000000
   O     63.46000000   111.72000000    27.35000000
   C     64.70000000   112.46000000    30.20000000
   C     66.06000000   112.10000000    29.61000000
   C     63.95000000   111.22000000    30.70000000
   C     67.07000000   111.61000000    30.64000000
   H     61.82000000   112.68000000    29.24000000
   H     64.23000000   114.28000000    29.26000000
   H     64.92000000   113.08000000    31.07000000
   H     66.55000000   113.00000000    29.24000000
   H     65.93000000   111.37000000    28.80000000
   H     64.55000000   110.75000000    31.48000000
   H     63.02000000   111.54000000    31.16000000
   H     63.76000000   110.58000000    29.84000000
   H     68.04000000   111.42000000    30.20000000
   H     67.27000000   112.37000000    31.40000000
   H     66.68000000   110.67000000    31.03000000
   N     64.97000000   113.29000000    27.01000000
   C     65.37000000   112.86000000    25.69000000
   C     66.89000000   112.90000000    25.53000000
   O     67.27000000   112.35000000    24.49000000
   C     64.77000000   113.76000000    24.61000000
   C     64.84000000   115.26000000    24.89000000
   O     63.38000000   113.50000000    24.53000000
   H     65.45000000   114.09000000    27.40000000
   H     65.05000000   111.83000000    25.50000000
   H     65.27000000   113.57000000    23.67000000
   H     62.97000000   113.71000000    25.37000000
   H     64.26000000   115.76000000    24.12000000
   H     64.41000000   115.46000000    25.87000000
   H     65.85000000   115.68000000    24.89000000
   N     67.65000000   113.25000000    26.56000000
   C     69.09000000   113.46000000    26.46000000
   C     69.40000000   114.56000000    25.45000000
   O     68.84000000   114.60000000    24.36000000
   C     69.85000000   112.15000000    26.27000000
   C     69.53000000   111.13000000    27.36000000
   O     71.21000000   112.49000000    26.42000000
   H     67.23000000   113.67000000    27.37000000
   H     69.49000000   113.98000000    27.32000000
   H     69.68000000   111.64000000    25.32000000
   H     71.52000000   112.54000000    25.51000000
   H     69.81000000   111.55000000    28.32000000
   H     68.49000000   110.80000000    27.35000000
   H     69.94000000   110.14000000    27.17000000
   N     70.37000000   115.39000000    25.81000000
   C     70.89000000   116.54000000    25.09000000
   C     71.41000000   117.74000000    25.86000000
   O     71.71000000   118.70000000    25.15000000
   C     71.87000000   116.03000000    24.03000000
   C     72.27000000   116.85000000    22.81000000
   C     71.09000000   117.38000000    22.00000000
   C     70.35000000   116.23000000    21.32000000
   N     69.06000000   116.66000000    20.76000000
   H     70.66000000   115.41000000    26.78000000
   H     70.05000000   116.92000000    24.50000000
   H     71.36000000   115.15000000    23.65000000
   H     72.75000000   115.70000000    24.58000000
   H     72.90000000   116.23000000    22.17000000
   H     72.91000000   117.66000000    23.16000000
   H     71.51000000   118.01000000    21.22000000
   H     70.30000000   117.89000000    22.54000000
   H     70.15000000   115.37000000    21.96000000
   H     71.00000000   115.80000000    20.56000000
   H     68.72000000   115.91000000    20.17000000
   H     68.44000000   116.92000000    21.52000000
   H     69.14000000   117.48000000    20.18000000
   N     71.65000000   117.80000000    27.17000000
   C     71.48000000   116.87000000    28.26000000
   C     72.34000000   115.62000000    28.12000000
   O     71.95000000   114.53000000    28.53000000
   C     70.01000000   116.71000000    28.66000000
   C     69.68000000   116.17000000    30.05000000
   C     68.46000000   116.89000000    30.61000000
   O     67.31000000   116.48000000    30.36000000
   O     68.58000000   117.83000000    31.42000000
   H     71.96000000   118.71000000    27.49000000
   H     71.90000000   117.37000000    29.13000000
   H     69.53000000   116.01000000    27.98000000
   H     69.62000000   117.72000000    28.52000000
   H     70.53000000   116.25000000    30.73000000
   H     69.30000000   115.16000000    29.94000000
   N     73.47000000   115.66000000    27.42000000
   C     74.26000000   114.45000000    27.26000000
   H     75.21000000   114.56600000    27.78100000
   H     73.71700000   113.60300000    27.68000000
   H     74.44600000   114.27400000    26.20000000
   H     73.96000000   116.48000000    27.07000000
  Ca     65.95000000   117.71700000    32.29000000
   O     64.11000000   117.07700000    30.30000000
   H     63.53000000   116.36700000    30.57000000
   H     63.74000000   117.37700000    29.46000000
   O     67.23000000   116.13700000    34.19000000
   H     66.79000000   115.50700000    34.77000000
   H     68.04000000   116.35700000    34.65000000
   O     64.45000000   115.60700000    32.87000000
   H     64.46000000   115.16700000    33.72000000
   H     63.67000000   115.25700000    32.44000000
   O     67.47000000   119.63700000    33.54000000
   H     67.66000000   120.02700000    34.39000000
   H     68.24000000   119.82700000    33.00000000
   O     66.19000000   119.78700000    30.35000000
   H     65.41000000   119.90700000    29.82000000
   H     66.76000000   120.52700000    30.11000000

Ca 1.00



