%chk=loop4.apoCaM-CA-Ng.Init295.run25.water5.chk
%nprocshared=20
%mem=10GB
%nosave
#b3lyp/svp scf=(tight,noincore,xqc) Test 
#IOP(5/87=12) Density=Current Pop=(MK,readradii) iop(6/33=2) iop(6/42=6)

loop4.apoCaM-CA-Ng.Init295.run25.water5 

   -3  1 
   C     95.03000000    36.32000000    61.59000000
   C     96.42000000    36.34000000    60.98000000
   O     96.58000000    36.71000000    59.82000000
   H     94.31500000    35.95500000    60.85200000
   H     95.02300000    35.66200000    62.45900000
   H     94.75200000    37.32900000    61.89600000
   N     97.41000000    35.88000000    61.75000000
   C     98.80000000    35.90000000    61.36000000
   C     99.35000000    37.26000000    60.96000000
   O    100.26000000    37.45000000    60.16000000
   C     99.16000000    34.86000000    60.30000000
   C     98.67000000    33.49000000    60.73000000
   O     98.48000000    33.19000000    61.93000000
   O     98.39000000    32.66000000    59.84000000
   H     97.16000000    35.31000000    62.55000000
   H     99.34000000    35.62000000    62.26000000
   H    100.23000000    34.75000000    60.09000000
   H     98.63000000    35.15000000    59.39000000
   N     98.69000000    38.31000000    61.47000000
   C     99.27000000    39.64000000    61.49000000
   C     99.96000000    40.00000000    62.80000000
   O     99.39000000    39.68000000    63.84000000
   C     98.15000000    40.62000000    61.13000000
   C     97.65000000    40.45000000    59.70000000
   C     98.49000000    42.09000000    61.33000000
   C     96.33000000    41.08000000    59.25000000
   H     98.00000000    38.09000000    62.17000000
   H     99.99000000    39.75000000    60.68000000
   H     97.37000000    40.40000000    61.85000000
   H     97.58000000    39.40000000    59.40000000
   H     98.38000000    40.93000000    59.05000000
   H     97.56000000    42.65000000    61.43000000
   H     99.10000000    42.30000000    62.21000000
   H     99.07000000    42.43000000    60.48000000
   H     96.23000000    42.08000000    59.67000000
   H     96.15000000    41.18000000    58.18000000
   H     95.49000000    40.47000000    59.60000000
   N    101.17000000    40.55000000    62.95000000
   C    102.14000000    40.66000000    61.88000000
   C    102.60000000    39.27000000    61.46000000
   O    102.95000000    39.13000000    60.29000000
   C    103.34000000    41.50000000    62.31000000
   C    103.01000000    42.98000000    62.44000000
   O    103.71000000    43.71000000    63.18000000
   O    102.12000000    43.47000000    61.71000000
   H    101.54000000    40.75000000    63.87000000
   H    101.69000000    41.13000000    61.00000000
   H    104.07000000    41.33000000    61.52000000
   H    103.73000000    41.16000000    63.27000000
   N    102.55000000    38.28000000    62.35000000
   C    102.91000000    36.88000000    62.21000000
   C    104.41000000    36.65000000    62.07000000
   O    105.09000000    36.41000000    63.06000000
   H    102.10000000    38.52000000    63.22000000
   H    102.43000000    36.66000000    61.26000000
   H    102.51000000    36.22000000    62.98000000
   N    104.75000000    36.34000000    60.81000000
   C    106.04000000    35.91000000    60.31000000
   C    106.32000000    36.32000000    58.88000000
   O    107.40000000    36.07000000    58.35000000
   C    106.10000000    34.40000000    60.53000000
   C    104.91000000    33.67000000    59.93000000
   O    104.83000000    33.71000000    58.69000000
   O    103.98000000    33.14000000    60.59000000
   H    103.97000000    36.19000000    60.18000000
   H    106.90000000    36.27000000    60.86000000
   H    106.11000000    34.29000000    61.61000000
   H    107.00000000    34.02000000    60.05000000
   N    105.42000000    37.00000000    58.16000000
   C    105.49000000    37.44000000    56.79000000
   C    105.04000000    36.37000000    55.81000000
   O    104.78000000    36.67000000    54.64000000
   H    104.50000000    37.10000000    58.56000000
   H    106.53000000    37.73000000    56.64000000
   H    104.77000000    38.25000000    56.70000000
   N    104.95000000    35.11000000    56.24000000
   C    104.90000000    33.96000000    55.35000000
   C    103.80000000    34.01000000    54.30000000
   O    104.05000000    33.84000000    53.11000000
   C    106.23000000    33.46000000    54.81000000
   C    107.21000000    33.12000000    55.94000000
   C    107.02000000    31.72000000    56.51000000
   N    106.37000000    31.67000000    57.68000000
   O    107.42000000    30.70000000    55.95000000
   H    105.14000000    34.86000000    57.20000000
   H    104.66000000    33.14000000    56.04000000
   H    106.71000000    34.24000000    54.23000000
   H    105.96000000    32.64000000    54.14000000
   H    107.08000000    33.83000000    56.75000000
   H    108.22000000    33.15000000    55.55000000
   H    106.22000000    32.57000000    58.12000000
   H    106.35000000    30.82000000    58.22000000
   N    102.59000000    34.39000000    54.73000000
   C    101.49000000    34.64000000    53.82000000
   C    100.89000000    33.29000000    53.47000000
   O    100.35000000    32.61000000    54.34000000
   C    100.42000000    35.59000000    54.34000000
   C    101.00000000    37.00000000    54.43000000
   C     99.28000000    35.64000000    53.33000000
   H    102.47000000    34.46000000    55.73000000
   H    101.92000000    35.19000000    52.97000000
   H    100.03000000    35.34000000    55.32000000
   H    101.93000000    37.06000000    54.99000000
   H    101.22000000    37.39000000    53.43000000
   H    100.30000000    37.75000000    54.80000000
   H     98.58000000    34.80000000    53.35000000
   H     98.78000000    36.59000000    53.49000000
   H     99.63000000    35.74000000    52.30000000
   N    100.80000000    32.94000000    52.19000000
   C    100.29000000    31.68000000    51.70000000
   C     98.79000000    31.84000000    51.46000000
   O     98.34000000    32.91000000    51.05000000
   C    101.09000000    31.40000000    50.43000000
   C    100.71000000    30.17000000    49.61000000
   N    100.29000000    29.04000000    50.17000000
   O    100.94000000    30.19000000    48.40000000
   H    101.36000000    33.50000000    51.56000000
   H    100.50000000    30.80000000    52.31000000
   H    102.12000000    31.31000000    50.78000000
   H    100.94000000    32.21000000    49.72000000
   H    100.16000000    29.00000000    51.17000000
   H    100.12000000    28.24000000    49.57000000
   N     98.08000000    30.72000000    51.61000000
   C     96.67000000    30.68000000    51.28000000
   C     95.93000000    29.62000000    52.08000000
   O     95.33000000    28.62000000    51.70000000
   C     96.50000000    30.41000000    49.79000000
   C     95.07000000    30.49000000    49.31000000
   C     94.34000000    31.67000000    49.43000000
   C     94.49000000    29.34000000    48.76000000
   C     93.02000000    31.74000000    48.98000000
   C     93.14000000    29.40000000    48.40000000
   C     92.38000000    30.59000000    48.47000000
   O     91.06000000    30.68000000    48.16000000
   H     98.46000000    29.83000000    51.91000000
   H     96.34000000    31.67000000    51.59000000
   H     96.96000000    29.48000000    49.44000000
   H     96.99000000    31.26000000    49.32000000
   H     94.83000000    32.56000000    49.82000000
   H     95.06000000    28.42000000    48.72000000
   H     92.63000000    32.75000000    48.93000000
   H     92.68000000    28.52000000    47.97000000
   H     90.69000000    29.82000000    47.95000000
   N     95.84000000    29.81000000    53.40000000
   C     95.19000000    28.89000000    54.32000000
   C     93.71000000    29.15000000    54.56000000
   O     92.90000000    28.23000000    54.64000000
   C     95.98000000    28.84000000    55.62000000
   C     97.50000000    28.70000000    55.52000000
   C     98.07000000    28.45000000    56.91000000
   O     98.15000000    29.44000000    57.66000000
   O     98.37000000    27.31000000    57.33000000
   H     96.27000000    30.65000000    53.74000000
   H     95.19000000    27.85000000    53.99000000
   H     95.53000000    28.06000000    56.23000000
   H     95.90000000    29.79000000    56.14000000
   H     97.93000000    29.64000000    55.18000000
   H     97.76000000    27.90000000    54.83000000
   N     93.27000000    30.37000000    54.86000000
   C     93.90000000    31.60000000    55.30000000
   C     93.40000000    32.88000000    54.65000000
   O     92.68000000    32.75000000    53.66000000
   C     93.65000000    31.58000000    56.81000000
   C     92.22000000    31.96000000    57.20000000
   C     91.86000000    31.61000000    58.64000000
   O     91.10000000    30.63000000    58.80000000
   O     92.27000000    32.31000000    59.59000000
   H     92.26000000    30.39000000    54.96000000
   H     94.98000000    31.63000000    55.19000000
   H     94.26000000    32.32000000    57.33000000
   H     93.88000000    30.61000000    57.24000000
   H     91.61000000    31.35000000    56.53000000
   H     91.99000000    33.02000000    57.15000000
   N     93.92000000    34.03000000    55.08000000
   C     93.55000000    35.35000000    54.60000000
   H     92.63500000    35.67300000    55.09600000
   H     94.35100000    36.05500000    54.82100000
   H     93.38500000    35.31300000    53.52300000
   H     94.60000000    34.02000000    55.82000000
  Ca     96.43000000    31.54000000    61.65000000
   O     93.82000000    30.73000000    61.10000000
   H     93.80000000    30.01000000    60.48000000
   H     93.22000000    31.38000000    60.74000000
   O     94.98000000    33.22000000    60.05000000
   H     94.06000000    33.17000000    59.78000000
   H     95.44000000    33.56000000    59.29000000
   O     98.50000000    30.22000000    62.20000000
   H     99.43000000    30.38000000    62.33000000
   H     98.35000000    29.34000000    62.53000000
   O     96.05000000    28.76000000    61.83000000
   H     95.53000000    28.09000000    61.38000000
   H     96.71000000    28.26000000    62.31000000
   O     96.35000000    30.36000000    59.30000000
   H     95.67000000    29.70000000    59.14000000
   H     97.08000000    30.09000000    58.74000000

Ca 1.00



