%chk=loop3.holoCaM-CaMKII.run48.water2.chk
%nprocshared=20
%mem=10GB
%nosave
#b3lyp/svp scf=(tight,noincore,xqc) Test 
#IOP(5/87=12) Density=Current Pop=(MK,readradii) iop(6/33=2) iop(6/42=6)

loop3.holoCaM-CaMKII.run48.water2 

   0  1 
   C     35.34000000    46.71000000    29.15000000
   C     36.66000000    46.54000000    29.89000000
   O     37.42000000    45.59000000    29.75000000
   H     34.61400000    47.18700000    29.80800000
   H     35.49400000    47.33300000    28.26900000
   H     34.96600000    45.73300000    28.84400000
   N     36.88000000    47.38000000    30.90000000
   C     37.88000000    47.09000000    31.91000000
   C     37.45000000    45.92000000    32.78000000
   O     36.27000000    45.87000000    33.12000000
   C     38.16000000    48.34000000    32.73000000
   C     39.27000000    48.35000000    33.78000000
   O     39.99000000    47.36000000    34.01000000
   O     39.34000000    49.42000000    34.43000000
   H     36.29000000    48.20000000    30.98000000
   H     38.86000000    46.83000000    31.50000000
   H     37.23000000    48.59000000    33.23000000
   H     38.40000000    49.02000000    31.92000000
   N     38.39000000    45.07000000    33.19000000
   C     38.24000000    43.79000000    33.87000000
   C     38.80000000    43.73000000    35.28000000
   O     38.75000000    42.71000000    35.96000000
   C     38.86000000    42.73000000    32.96000000
   C     38.50000000    41.27000000    33.18000000
   C     39.32000000    40.43000000    32.20000000
   C     39.11000000    38.95000000    32.52000000
   N     40.05000000    38.03000000    31.87000000
   H     39.27000000    45.21000000    32.73000000
   H     37.17000000    43.60000000    34.01000000
   H     39.94000000    42.89000000    33.02000000
   H     38.53000000    43.02000000    31.96000000
   H     37.43000000    41.13000000    33.05000000
   H     38.57000000    41.03000000    34.24000000
   H     40.37000000    40.71000000    32.18000000
   H     38.94000000    40.49000000    31.18000000
   H     38.05000000    38.71000000    32.44000000
   H     39.28000000    38.77000000    33.58000000
   H     40.20000000    37.12000000    32.29000000
   H     39.82000000    37.81000000    30.91000000
   H     40.96000000    38.46000000    31.77000000
   N     39.28000000    44.87000000    35.78000000
   C     39.94000000    44.93000000    37.07000000
   C     39.75000000    46.28000000    37.74000000
   O     40.13000000    46.41000000    38.91000000
   C     41.43000000    44.61000000    37.02000000
   C     42.07000000    45.06000000    35.72000000
   O     41.90000000    44.43000000    34.65000000
   O     42.61000000    46.19000000    35.68000000
   H     39.34000000    45.65000000    35.14000000
   H     39.46000000    44.20000000    37.72000000
   H     41.50000000    43.53000000    37.14000000
   H     41.93000000    45.12000000    37.85000000
   N     39.19000000    47.31000000    37.12000000
   C     38.96000000    48.64000000    37.66000000
   C     40.17000000    49.56000000    37.76000000
   O     40.14000000    50.48000000    38.58000000
   H     38.88000000    47.13000000    36.18000000
   H     38.49000000    48.62000000    38.64000000
   H     38.32000000    49.11000000    36.90000000
   N     41.22000000    49.34000000    36.97000000
   C     42.43000000    50.13000000    36.89000000
   C     42.34000000    51.32000000    35.96000000
   O     43.19000000    52.19000000    36.13000000
   C     43.63000000    49.22000000    36.63000000
   C     43.88000000    49.05000000    35.14000000
   N     45.17000000    48.93000000    34.81000000
   O     42.99000000    48.97000000    34.29000000
   H     41.19000000    48.54000000    36.36000000
   H     42.49000000    50.57000000    37.88000000
   H     43.36000000    48.28000000    37.11000000
   H     44.46000000    49.83000000    37.00000000
   H     45.94000000    48.95000000    35.46000000
   H     45.30000000    48.94000000    33.80000000
   N     41.30000000    51.45000000    35.13000000
   C     40.93000000    52.55000000    34.27000000
   C     41.57000000    52.48000000    32.90000000
   O     41.91000000    53.50000000    32.30000000
   H     40.71000000    50.63000000    35.03000000
   H     41.26000000    53.50000000    34.69000000
   H     39.84000000    52.56000000    34.21000000
   N     41.81000000    51.24000000    32.46000000
   C     42.42000000    50.97000000    31.17000000
   C     41.97000000    49.66000000    30.55000000
   O     41.70000000    48.63000000    31.18000000
   C     43.94000000    51.03000000    31.30000000
   C     44.57000000    52.35000000    31.67000000
   C     44.80000000    53.36000000    30.73000000
   C     44.94000000    52.49000000    33.01000000
   C     45.40000000    54.54000000    31.19000000
   C     45.54000000    53.67000000    33.46000000
   C     45.74000000    54.73000000    32.54000000
   O     46.28000000    55.92000000    32.91000000
   H     41.44000000    50.47000000    32.98000000
   H     42.15000000    51.72000000    30.43000000
   H     44.30000000    50.69000000    30.33000000
   H     44.28000000    50.26000000    31.99000000
   H     44.46000000    53.33000000    29.70000000
   H     44.68000000    51.75000000    33.76000000
   H     45.59000000    55.32000000    30.46000000
   H     45.97000000    53.73000000    34.44000000
   H     46.17000000    56.56000000    32.21000000
   N     42.03000000    49.66000000    29.22000000
   C     41.75000000    48.47000000    28.43000000
   C     43.01000000    47.93000000    27.75000000
   O     43.89000000    48.69000000    27.37000000
   C     40.62000000    48.69000000    27.43000000
   C     39.37000000    49.36000000    28.01000000
   C     40.09000000    47.43000000    26.75000000
   C     38.43000000    50.08000000    27.05000000
   H     42.26000000    50.47000000    28.66000000
   H     41.48000000    47.67000000    29.11000000
   H     40.98000000    49.38000000    26.67000000
   H     39.68000000    50.05000000    28.79000000
   H     38.90000000    48.56000000    28.58000000
   H     39.73000000    46.69000000    27.47000000
   H     39.26000000    47.57000000    26.05000000
   H     40.89000000    46.97000000    26.17000000
   H     37.99000000    49.47000000    26.26000000
   H     37.61000000    50.47000000    27.66000000
   H     38.87000000    50.99000000    26.66000000
   N     43.05000000    46.61000000    27.55000000
   C     44.08000000    45.86000000    26.86000000
   C     43.45000000    44.80000000    25.98000000
   O     42.24000000    44.58000000    26.07000000
   C     44.93000000    45.09000000    27.87000000
   O     44.16000000    44.19000000    28.62000000
   H     42.26000000    46.08000000    27.89000000
   H     44.62000000    46.55000000    26.21000000
   H     45.50000000    45.79000000    28.49000000
   H     45.70000000    44.51000000    27.37000000
   H     43.76000000    44.62000000    29.38000000
   N     44.19000000    44.19000000    25.05000000
   C     43.69000000    43.27000000    24.05000000
   C     43.12000000    41.98000000    24.60000000
   O     42.21000000    41.34000000    24.07000000
   C     44.77000000    43.11000000    22.98000000
   H     45.14000000    44.52000000    25.01000000
   H     42.90000000    43.80000000    23.51000000
   H     45.65000000    42.64000000    23.40000000
   H     44.44000000    42.54000000    22.11000000
   H     45.14000000    44.07000000    22.61000000
   N     43.58000000    41.67000000    25.82000000
   C     43.18000000    40.54000000    26.63000000
   C     41.81000000    40.87000000    27.22000000
   O     40.90000000    40.04000000    27.24000000
   C     44.18000000    40.40000000    27.77000000
   H     44.24000000    42.36000000    26.17000000
   H     43.09000000    39.60000000    26.09000000
   H     43.76000000    39.63000000    28.42000000
   H     45.10000000    40.01000000    27.34000000
   H     44.17000000    41.29000000    28.40000000
   N     41.48000000    42.11000000    27.56000000
   C     40.21000000    42.48000000    28.16000000
   C     39.19000000    42.58000000    27.04000000
   O     38.06000000    42.18000000    27.30000000
   C     40.28000000    43.70000000    29.08000000
   C     41.20000000    43.42000000    30.27000000
   C     41.56000000    44.72000000    30.97000000
   O     40.79000000    45.17000000    31.85000000
   O     42.57000000    45.38000000    30.65000000
   H     42.26000000    42.74000000    27.56000000
   H     39.87000000    41.64000000    28.76000000
   H     39.30000000    44.02000000    29.43000000
   H     40.63000000    44.51000000    28.43000000
   H     42.07000000    42.93000000    29.84000000
   H     40.85000000    42.67000000    30.99000000
   N     39.62000000    43.06000000    25.87000000
   C     38.74000000    43.10000000    24.72000000
   H     37.85800000    43.69500000    24.95900000
   H     39.26400000    43.55000000    23.87700000
   H     38.43500000    42.08600000    24.46000000
   H     40.58000000    43.36000000    25.82000000
  Ca     42.44000000    46.67000000    33.06000000
   O     44.75000000    47.85000000    31.83000000
   H     45.55000000    47.36000000    31.99000000
   H     44.93000000    48.37000000    31.05000000
   O     44.63000000    45.00000000    32.98000000
   H     45.47000000    45.42000000    32.80000000
   H     44.86000000    44.18000000    33.42000000

Ca 1.00



