%chk=loop2.apoCaM-CA-Ng.Init293.run67.water5.chk
%nprocshared=20
%mem=10GB
%nosave
#b3lyp/svp scf=(tight,noincore,xqc) Test 
#IOP(5/87=12) Density=Current Pop=(MK,readradii) iop(6/33=2) iop(6/42=6)

loop2.apoCaM-CA-Ng.Init293.run67.water5 

   -2  1 
   C    101.08000000    65.47000000    51.10000000
   C    101.45000000    65.97000000    52.49000000
   O    101.20000000    67.13000000    52.78000000
   H    100.24000000    66.05000000    50.71800000
   H    101.93400000    65.58500000    50.43300000
   H    100.80000000    64.41800000    51.15400000
   N    101.91000000    65.11000000    53.40000000
   C    102.47000000    65.47000000    54.69000000
   C    103.48000000    66.60000000    54.61000000
   O    103.44000000    67.42000000    55.53000000
   C    103.01000000    64.22000000    55.38000000
   C    103.21000000    64.35000000    56.88000000
   O    104.36000000    64.14000000    57.32000000
   O    102.32000000    64.67000000    57.70000000
   H    102.04000000    64.15000000    53.11000000
   H    101.61000000    65.87000000    55.22000000
   H    103.95000000    63.99000000    54.88000000
   H    102.27000000    63.42000000    55.27000000
   N    104.27000000    66.72000000    53.54000000
   C    105.29000000    67.72000000    53.27000000
   C    104.81000000    69.16000000    53.29000000
   O    105.64000000    70.05000000    53.44000000
   C    106.46000000    67.45000000    54.22000000
   H    104.23000000    65.98000000    52.85000000
   H    105.64000000    67.50000000    52.26000000
   H    107.22000000    68.24000000    54.25000000
   H    106.06000000    67.37000000    55.23000000
   H    106.89000000    66.48000000    54.00000000
   N    103.53000000    69.49000000    53.09000000
   C    103.13000000    70.88000000    53.02000000
   C    103.14000000    71.62000000    54.35000000
   O    103.36000000    72.83000000    54.41000000
   C    103.53000000    71.60000000    51.74000000
   C    103.49000000    70.88000000    50.40000000
   O    104.07000000    71.40000000    49.42000000
   O    102.80000000    69.84000000    50.25000000
   H    102.92000000    68.70000000    52.94000000
   H    102.04000000    70.86000000    52.92000000
   H    104.51000000    72.04000000    51.92000000
   H    102.81000000    72.41000000    51.65000000
   N    102.90000000    70.84000000    55.40000000
   C    102.67000000    71.17000000    56.79000000
   C    101.28000000    71.70000000    57.12000000
   O    100.37000000    71.49000000    56.32000000
   H    102.87000000    69.86000000    55.16000000
   H    103.38000000    71.96000000    57.04000000
   H    102.93000000    70.32000000    57.43000000
   N    101.14000000    72.52000000    58.16000000
   C     99.90000000    73.22000000    58.45000000
   C     98.64000000    72.37000000    58.57000000
   O     97.54000000    72.78000000    58.23000000
   C     99.78000000    74.43000000    57.52000000
   C     98.72000000    75.43000000    57.96000000
   N     98.09000000    76.06000000    56.97000000
   O     98.64000000    75.82000000    59.12000000
   H    101.89000000    72.61000000    58.83000000
   H    100.07000000    73.65000000    59.43000000
   H     99.49000000    74.11000000    56.52000000
   H    100.74000000    74.95000000    57.43000000
   H     98.25000000    75.76000000    56.02000000
   H     97.40000000    76.76000000    57.20000000
   N     98.77000000    71.12000000    59.02000000
   C     97.67000000    70.23000000    59.31000000
   C     97.37000000    69.16000000    58.26000000
   O     96.71000000    68.18000000    58.59000000
   H     99.69000000    70.72000000    59.18000000
   H     96.77000000    70.83000000    59.48000000
   H     97.89000000    69.67000000    60.22000000
   N     97.84000000    69.31000000    57.02000000
   C     97.66000000    68.39000000    55.91000000
   C     96.44000000    68.78000000    55.10000000
   O     96.20000000    69.96000000    54.82000000
   C     98.94000000    68.31000000    55.08000000
   C    100.20000000    68.14000000    55.93000000
   O     98.97000000    67.21000000    54.20000000
   H     98.32000000    70.16000000    56.78000000
   H     97.42000000    67.44000000    56.38000000
   H     98.95000000    69.23000000    54.51000000
   H     99.82000000    67.33000000    53.78000000
   H    100.19000000    67.14000000    56.36000000
   H    101.02000000    68.23000000    55.22000000
   H    100.30000000    68.90000000    56.71000000
   N     95.82000000    67.73000000    54.54000000
   C     94.86000000    67.86000000    53.47000000
   C     95.34000000    68.70000000    52.29000000
   O     96.49000000    68.71000000    51.85000000
   C     94.28000000    66.54000000    52.97000000
   C     95.35000000    65.51000000    52.63000000
   C     93.29000000    65.95000000    53.96000000
   C     94.87000000    64.21000000    51.99000000
   H     96.01000000    66.78000000    54.81000000
   H     94.03000000    68.38000000    53.95000000
   H     93.65000000    66.71000000    52.09000000
   H     95.87000000    65.25000000    53.55000000
   H     96.02000000    65.96000000    51.90000000
   H     92.58000000    66.74000000    54.18000000
   H     92.80000000    65.15000000    53.41000000
   H     93.86000000    65.61000000    54.83000000
   H     94.23000000    63.65000000    52.67000000
   H     94.40000000    64.38000000    51.02000000
   H     95.79000000    63.69000000    51.76000000
   N     94.35000000    69.32000000    51.65000000
   C     94.49000000    70.22000000    50.52000000
   C     93.81000000    71.55000000    50.81000000
   O     92.86000000    71.96000000    50.13000000
   C     94.07000000    69.49000000    49.24000000
   C     94.68000000    70.08000000    47.98000000
   O     95.61000000    70.91000000    48.09000000
   O     94.15000000    69.75000000    46.89000000
   H     93.44000000    69.25000000    52.09000000
   H     95.55000000    70.44000000    50.43000000
   H     92.98000000    69.47000000    49.15000000
   H     94.30000000    68.43000000    49.32000000
   N     94.35000000    72.33000000    51.74000000
   C     93.80000000    73.64000000    52.04000000
   C     93.84000000    74.00000000    53.52000000
   O     93.98000000    75.19000000    53.81000000
   C     94.44000000    74.68000000    51.12000000
   C     93.59000000    75.91000000    50.90000000
   C     94.09000000    77.13000000    51.36000000
   C     92.33000000    75.83000000    50.29000000
   C     93.31000000    78.29000000    51.27000000
   C     91.57000000    77.00000000    50.23000000
   C     92.02000000    78.23000000    50.73000000
   H     95.21000000    72.03000000    52.18000000
   H     92.72000000    73.60000000    51.90000000
   H     94.70000000    74.14000000    50.20000000
   H     95.34000000    74.99000000    51.63000000
   H     95.00000000    77.31000000    51.91000000
   H     92.06000000    74.93000000    49.77000000
   H     93.62000000    79.20000000    51.77000000
   H     90.54000000    76.95000000    49.91000000
   H     91.33000000    79.06000000    50.75000000
   N     93.67000000    73.11000000    54.50000000
   C     93.37000000    71.70000000    54.49000000
   C     92.04000000    71.38000000    53.81000000
   O     91.92000000    70.33000000    53.18000000
   C     93.29000000    71.26000000    55.95000000
   C     94.27000000    72.20000000    56.64000000
   C     93.92000000    73.47000000    55.88000000
   H     94.19000000    71.06000000    54.17000000
   H     92.32000000    71.46000000    56.40000000
   H     93.54000000    70.21000000    56.10000000
   H     93.93000000    72.29000000    57.68000000
   H     95.25000000    71.81000000    56.38000000
   H     92.97000000    73.83000000    56.28000000
   H     94.72000000    74.19000000    56.03000000
   N     91.05000000    72.23000000    54.08000000
   C     89.70000000    72.17000000    53.54000000
   C     89.08000000    70.79000000    53.36000000
   O     88.66000000    70.36000000    52.28000000
   C     89.62000000    72.97000000    52.24000000
   C     90.04000000    74.44000000    52.36000000
   C     89.11000000    75.24000000    53.27000000
   O     88.25000000    75.94000000    52.71000000
   O     89.49000000    75.36000000    54.45000000
   H     91.26000000    72.85000000    54.84000000
   H     88.98000000    72.62000000    54.22000000
   H     88.60000000    72.91000000    51.86000000
   H     90.24000000    72.55000000    51.45000000
   H     89.84000000    74.84000000    51.37000000
   H     91.11000000    74.50000000    52.55000000
   N     89.02000000    69.98000000    54.42000000
   C     88.65000000    68.59000000    54.28000000
   H     87.70600000    68.51900000    53.74000000
   H     89.42600000    68.06100000    53.72600000
   H     88.53800000    68.14200000    55.26700000
   H     89.13000000    70.25000000    55.38000000
  Ca    103.31300000    69.63000000    47.72000000
   O    101.94300000    69.05000000    45.48000000
   H    101.03300000    68.74000000    45.43000000
   H    102.00300000    69.71000000    44.79000000
   O    105.85300000    68.99000000    48.63000000
   H    106.49300000    68.33000000    48.39000000
   H    106.37300000    69.72000000    48.96000000
   O    100.61300000    69.66000000    48.07000000
   H    100.28300000    69.06000000    48.73000000
   H     99.90300000    69.72000000    47.42000000
   O    104.84300000    70.58000000    45.76000000
   H    105.66300000    70.88000000    45.36000000
   H    104.19300000    71.23000000    45.50000000
   O    102.28300000    71.96000000    46.95000000
   H    101.47300000    72.13000000    46.47000000
   H    102.33300000    72.67000000    47.60000000

Ca 1.00



