%chk=loop4.apoCaM-CA-Ng.Init295.run12.water5.chk
%nprocshared=20
%mem=10GB
%nosave
#b3lyp/svp scf=(tight,noincore,xqc) Test 
#IOP(5/87=12) Density=Current Pop=(MK,readradii) iop(6/33=2) iop(6/42=6)

loop4.apoCaM-CA-Ng.Init295.run12.water5 

   -3  1 
   C     92.50000000    26.15000000    77.55000000
   C     93.60000000    26.50000000    78.55000000
   O     94.35000000    27.45000000    78.33000000
   H     91.65600000    26.82600000    77.68700000
   H     92.88500000    26.25200000    76.53500000
   H     92.17200000    25.12300000    77.71400000
   N     93.69000000    25.73000000    79.64000000
   C     94.69000000    25.94000000    80.66000000
   C     94.51000000    27.28000000    81.36000000
   O     95.47000000    28.06000000    81.36000000
   C     96.11000000    25.59000000    80.22000000
   C     96.18000000    24.24000000    79.51000000
   O     96.91000000    23.96000000    78.54000000
   O     95.49000000    23.27000000    79.87000000
   H     92.96000000    25.06000000    79.82000000
   H     94.47000000    25.18000000    81.41000000
   H     96.78000000    25.75000000    81.06000000
   H     96.41000000    26.27000000    79.43000000
   N     93.30000000    27.62000000    81.81000000
   C     93.06000000    28.88000000    82.50000000
   C     92.55000000    28.57000000    83.90000000
   O     91.60000000    27.81000000    84.02000000
   C     92.00000000    29.55000000    81.64000000
   C     92.51000000    30.02000000    80.28000000
   C     91.48000000    30.73000000    82.45000000
   C     91.61000000    30.97000000    79.50000000
   H     92.49000000    27.09000000    81.55000000
   H     93.98000000    29.46000000    82.50000000
   H     91.18000000    28.87000000    81.43000000
   H     92.56000000    29.14000000    79.63000000
   H     93.46000000    30.53000000    80.43000000
   H     91.00000000    30.38000000    83.36000000
   H     92.24000000    31.49000000    82.62000000
   H     90.61000000    31.08000000    81.89000000
   H     91.35000000    31.86000000    80.06000000
   H     92.16000000    31.38000000    78.65000000
   H     90.69000000    30.44000000    79.27000000
   N     93.15000000    28.98000000    85.03000000
   C     94.37000000    29.76000000    85.11000000
   C     95.69000000    29.10000000    84.78000000
   O     96.66000000    29.76000000    84.41000000
   C     94.43000000    30.44000000    86.47000000
   C     93.23000000    31.27000000    86.89000000
   O     92.21000000    30.74000000    87.37000000
   O     93.25000000    32.50000000    86.65000000
   H     92.65000000    28.88000000    85.90000000
   H     94.26000000    30.60000000    84.42000000
   H     95.36000000    31.02000000    86.49000000
   H     94.65000000    29.70000000    87.25000000
   N     95.72000000    27.76000000    84.86000000
   C     96.80000000    26.89000000    84.46000000
   C     98.07000000    27.13000000    85.27000000
   O     98.06000000    26.96000000    86.49000000
   H     94.85000000    27.35000000    85.16000000
   H     96.99000000    26.78000000    83.39000000
   H     96.42000000    25.93000000    84.79000000
   N     99.14000000    27.48000000    84.55000000
   C    100.46000000    27.69000000    85.09000000
   C    101.16000000    28.85000000    84.38000000
   O    102.29000000    29.17000000    84.74000000
   C    101.27000000    26.40000000    85.02000000
   C    101.13000000    25.60000000    83.73000000
   O    101.28000000    26.22000000    82.65000000
   O    101.00000000    24.37000000    83.85000000
   H     98.99000000    27.58000000    83.56000000
   H    100.32000000    28.05000000    86.11000000
   H    101.06000000    25.81000000    85.91000000
   H    102.31000000    26.69000000    85.14000000
   N    100.57000000    29.43000000    83.33000000
   C    101.13000000    30.44000000    82.46000000
   C    101.88000000    29.86000000    81.27000000
   O    102.36000000    30.72000000    80.53000000
   H     99.64000000    29.10000000    83.15000000
   H    101.76000000    31.01000000    83.15000000
   H    100.33000000    31.07000000    82.09000000
   N    102.04000000    28.54000000    81.19000000
   C    102.99000000    27.89000000    80.31000000
   C    102.70000000    27.95000000    78.81000000
   O    103.52000000    28.37000000    78.00000000
   C    104.40000000    28.27000000    80.74000000
   C    104.98000000    27.58000000    81.97000000
   C    106.48000000    27.78000000    82.18000000
   N    106.90000000    28.26000000    83.35000000
   O    107.29000000    27.67000000    81.27000000
   H    101.76000000    27.95000000    81.96000000
   H    102.89000000    26.81000000    80.41000000
   H    104.51000000    29.35000000    80.63000000
   H    104.97000000    27.96000000    79.86000000
   H    104.89000000    26.50000000    81.89000000
   H    104.38000000    27.89000000    82.83000000
   H    106.28000000    28.28000000    84.15000000
   H    107.84000000    28.60000000    83.50000000
   N    101.51000000    27.49000000    78.44000000
   C    101.01000000    27.74000000    77.10000000
   C    101.45000000    26.61000000    76.18000000
   O    101.79000000    25.55000000    76.70000000
   C     99.50000000    27.94000000    77.01000000
   C     98.69000000    26.64000000    76.96000000
   C     99.08000000    28.91000000    78.10000000
   H    100.96000000    27.08000000    79.18000000
   H    101.51000000    28.65000000    76.76000000
   H     99.30000000    28.46000000    76.07000000
   H     99.00000000    25.95000000    76.18000000
   H     99.11000000    26.15000000    77.84000000
   H     97.61000000    26.73000000    77.00000000
   H     99.19000000    28.53000000    79.12000000
   H     99.68000000    29.81000000    77.96000000
   H     98.00000000    29.02000000    78.01000000
   N    101.59000000    26.81000000    74.87000000
   C    102.24000000    25.87000000    73.98000000
   C    101.33000000    25.28000000    72.91000000
   O    100.30000000    25.86000000    72.59000000
   C    103.40000000    26.74000000    73.49000000
   C    104.24000000    26.04000000    72.43000000
   N    104.60000000    24.78000000    72.68000000
   O    104.50000000    26.56000000    71.35000000
   H    101.21000000    27.62000000    74.39000000
   H    102.67000000    25.05000000    74.56000000
   H    104.07000000    27.03000000    74.30000000
   H    102.90000000    27.60000000    73.04000000
   H    104.35000000    24.40000000    73.58000000
   H    105.28000000    24.35000000    72.07000000
   N    101.77000000    24.14000000    72.37000000
   C    101.16000000    23.50000000    71.22000000
   C    101.29000000    21.99000000    71.11000000
   O    102.37000000    21.50000000    71.43000000
   C    101.65000000    24.19000000    69.95000000
   C    101.16000000    23.72000000    68.60000000
   C     99.77000000    23.65000000    68.43000000
   C    102.01000000    23.40000000    67.54000000
   C     99.26000000    23.10000000    67.24000000
   C    101.49000000    22.84000000    66.37000000
   C    100.11000000    22.63000000    66.22000000
   O     99.52000000    21.98000000    65.18000000
   H    102.61000000    23.73000000    72.77000000
   H    100.08000000    23.68000000    71.24000000
   H    102.74000000    24.17000000    70.01000000
   H    101.44000000    25.25000000    69.93000000
   H     99.08000000    23.90000000    69.22000000
   H    103.06000000    23.55000000    67.74000000
   H     98.19000000    22.97000000    67.16000000
   H    102.15000000    22.34000000    65.66000000
   H    100.16000000    21.69000000    64.52000000
   N    100.31000000    21.33000000    70.49000000
   C    100.43000000    19.99000000    69.95000000
   C     99.71000000    19.86000000    68.61000000
   O    100.39000000    19.36000000    67.72000000
   C    100.01000000    18.88000000    70.89000000
   C    101.14000000    18.45000000    71.82000000
   C    100.91000000    17.15000000    72.58000000
   O    101.76000000    16.24000000    72.43000000
   O     99.90000000    17.04000000    73.30000000
   H     99.43000000    21.81000000    70.34000000
   H    101.50000000    19.90000000    69.76000000
   H     99.82000000    17.98000000    70.30000000
   H     99.17000000    19.18000000    71.52000000
   H    101.39000000    19.28000000    72.48000000
   H    101.96000000    18.27000000    71.13000000
   N     98.48000000    20.34000000    68.42000000
   C     97.48000000    20.53000000    69.46000000
   C     96.44000000    21.59000000    69.15000000
   O     96.02000000    21.72000000    68.00000000
   C     96.80000000    19.17000000    69.65000000
   C     95.82000000    19.28000000    70.82000000
   C     95.49000000    17.85000000    71.21000000
   O     95.86000000    17.31000000    72.27000000
   O     94.81000000    17.19000000    70.40000000
   H     98.21000000    20.46000000    67.45000000
   H     97.97000000    20.84000000    70.38000000
   H     97.52000000    18.37000000    69.82000000
   H     96.21000000    19.03000000    68.75000000
   H     94.94000000    19.83000000    70.50000000
   H     96.27000000    19.81000000    71.66000000
   N     95.91000000    22.34000000    70.12000000
   C     94.73000000    23.18000000    70.09000000
   H     93.91900000    22.68600000    70.62500000
   H     94.95100000    24.13500000    70.56700000
   H     94.43100000    23.35100000    69.05600000
   H     96.34000000    22.33000000    71.03000000
  Ca     95.74000000    21.85000000    77.44000000
   O     98.43000000    21.59000000    77.14000000
   H     99.15000000    22.04000000    76.68000000
   H     98.82000000    20.79000000    77.48000000
   O     96.43000000    19.38000000    76.33000000
   H     95.92000000    18.62000000    76.60000000
   H     96.95000000    19.07000000    75.58000000
   O     96.79000000    23.67000000    75.80000000
   H     96.98000000    24.08000000    76.65000000
   H     96.80000000    24.40000000    75.18000000
   O     94.98000000    21.45000000    74.93000000
   H     94.88000000    20.84000000    74.21000000
   H     94.93000000    22.32000000    74.52000000
   O     96.97000000    20.15000000    79.35000000
   H     97.53000000    20.47000000    80.06000000
   H     97.57000000    19.65000000    78.79000000

Ca 1.00



