%chk=loop1.holoCaM-CaMKII.run32.water2.chk
%nprocshared=20
%mem=10GB
%nosave
#b3lyp/svp scf=(tight,noincore,xqc) Test 
#IOP(5/87=12) Density=Current Pop=(MK,readradii) iop(6/33=2) iop(6/42=6)

loop1.holoCaM-CaMKII.run32.water2 

   0  1 
   C     84.13000000    49.78000000     8.89000000
   C     84.15000000    49.86000000     7.37000000
   O     83.69000000    48.93000000     6.71000000
   H     83.40200000    50.49100000     9.28100000
   H     83.85400000    48.77100000     9.19800000
   H     85.11900000    50.02200000     9.28000000
   N     84.91000000    50.81000000     6.83000000
   C     85.50000000    50.72000000     5.51000000
   C     86.88000000    50.08000000     5.50000000
   O     87.72000000    50.64000000     6.21000000
   C     85.46000000    52.12000000     4.90000000
   C     86.31000000    52.21000000     3.64000000
   O     86.78000000    53.35000000     3.42000000
   O     86.48000000    51.26000000     2.84000000
   H     85.07000000    51.70000000     7.29000000
   H     84.90000000    50.05000000     4.90000000
   H     86.00000000    52.74000000     5.61000000
   H     84.46000000    52.53000000     4.80000000
   N     87.15000000    49.01000000     4.74000000
   C     88.36000000    48.22000000     4.71000000
   C     89.21000000    48.41000000     3.46000000
   O     90.31000000    47.87000000     3.36000000
   C     87.85000000    46.79000000     4.80000000
   C     87.19000000    46.23000000     6.06000000
   C     88.05000000    46.21000000     7.32000000
   C     87.57000000    45.11000000     8.26000000
   N     86.36000000    45.46000000     9.01000000
   H     86.47000000    48.76000000     4.03000000
   H     88.93000000    48.44000000     5.62000000
   H     88.60000000    46.05000000     4.53000000
   H     87.15000000    46.67000000     3.97000000
   H     86.83000000    45.23000000     5.80000000
   H     86.34000000    46.89000000     6.25000000
   H     87.87000000    47.15000000     7.85000000
   H     89.03000000    46.03000000     6.89000000
   H     88.37000000    44.90000000     8.97000000
   H     87.51000000    44.20000000     7.67000000
   H     86.03000000    44.79000000     9.68000000
   H     86.50000000    46.34000000     9.48000000
   H     85.56000000    45.70000000     8.43000000
   N     88.71000000    49.23000000     2.54000000
   C     89.51000000    49.75000000     1.44000000
   C     90.17000000    51.10000000     1.70000000
   O     91.26000000    51.33000000     1.20000000
   C     88.76000000    49.79000000     0.11000000
   C     87.69000000    48.72000000    -0.03000000
   O     86.49000000    48.99000000     0.19000000
   O     88.00000000    47.58000000    -0.45000000
   H     87.73000000    49.49000000     2.57000000
   H     90.35000000    49.06000000     1.38000000
   H     89.52000000    49.67000000    -0.66000000
   H     88.33000000    50.77000000    -0.08000000
   N     89.47000000    52.03000000     2.36000000
   C     89.94000000    53.39000000     2.32000000
   C     89.41000000    54.17000000     1.13000000
   O     90.11000000    55.03000000     0.60000000
   H     88.54000000    51.88000000     2.73000000
   H     91.02000000    53.54000000     2.28000000
   H     89.62000000    53.86000000     3.25000000
   N     88.17000000    53.98000000     0.66000000
   C     87.57000000    54.71000000    -0.44000000
   C     86.47000000    55.72000000    -0.13000000
   O     85.90000000    56.34000000    -1.02000000
   C     87.11000000    53.60000000    -1.38000000
   C     86.08000000    52.64000000    -0.80000000
   O     85.25000000    53.05000000     0.04000000
   O     86.07000000    51.43000000    -1.13000000
   H     87.58000000    53.38000000     1.22000000
   H     88.34000000    55.24000000    -1.00000000
   H     87.91000000    52.98000000    -1.77000000
   H     86.64000000    54.17000000    -2.19000000
   N     86.17000000    55.85000000     1.16000000
   C     85.27000000    56.79000000     1.80000000
   C     83.83000000    56.35000000     1.97000000
   O     83.01000000    57.19000000     2.34000000
   H     86.95000000    55.48000000     1.69000000
   H     85.24000000    57.67000000     1.16000000
   H     85.54000000    57.07000000     2.82000000
   N     83.42000000    55.13000000     1.63000000
   C     82.05000000    54.67000000     1.58000000
   C     82.08000000    53.25000000     2.13000000
   O     82.98000000    52.42000000     2.05000000
   C     81.39000000    54.63000000     0.21000000
   C     81.11000000    55.98000000    -0.44000000
   O     82.29000000    54.04000000    -0.70000000
   H     84.13000000    54.48000000     1.32000000
   H     81.55000000    55.39000000     2.24000000
   H     80.44000000    54.10000000     0.34000000
   H     82.48000000    54.61000000    -1.45000000
   H     82.01000000    56.49000000    -0.77000000
   H     80.40000000    55.82000000    -1.25000000
   H     80.57000000    56.60000000     0.27000000
   N     81.00000000    52.88000000     2.82000000
   C     80.78000000    51.63000000     3.52000000
   C     79.67000000    50.82000000     2.87000000
   O     78.50000000    51.14000000     2.70000000
   C     80.45000000    51.72000000     5.01000000
   C     81.52000000    52.36000000     5.90000000
   C     80.25000000    50.34000000     5.63000000
   C     80.85000000    52.93000000     7.15000000
   H     80.30000000    53.59000000     2.97000000
   H     81.67000000    51.00000000     3.49000000
   H     79.50000000    52.23000000     5.16000000
   H     82.01000000    53.19000000     5.42000000
   H     82.37000000    51.69000000     6.02000000
   H     79.43000000    49.77000000     5.19000000
   H     81.14000000    49.71000000     5.65000000
   H     79.91000000    50.47000000     6.65000000
   H     81.53000000    53.67000000     7.58000000
   H     79.87000000    53.34000000     6.89000000
   H     80.75000000    52.24000000     7.99000000
   N     80.00000000    49.67000000     2.27000000
   C     79.07000000    48.81000000     1.57000000
   C     78.34000000    47.81000000     2.47000000
   O     78.74000000    47.50000000     3.59000000
   C     79.77000000    48.00000000     0.48000000
   C     80.36000000    48.74000000    -0.71000000
   O     80.87000000    47.30000000     1.00000000
   H     80.98000000    49.45000000     2.39000000
   H     78.33000000    49.38000000     1.02000000
   H     79.07000000    47.30000000     0.01000000
   H     81.60000000    47.89000000     1.17000000
   H     81.24000000    49.32000000    -0.42000000
   H     80.65000000    48.06000000    -1.51000000
   H     79.56000000    49.34000000    -1.14000000
   N     77.18000000    47.36000000     1.99000000
   C     76.47000000    46.40000000     2.82000000
   C     77.35000000    45.21000000     3.19000000
   O     77.15000000    44.76000000     4.31000000
   C     75.25000000    45.92000000     2.06000000
   C     74.08000000    45.56000000     2.98000000
   O     74.72000000    46.89000000     1.19000000
   H     76.60000000    47.77000000     1.28000000
   H     76.17000000    46.94000000     3.72000000
   H     75.59000000    45.04000000     1.52000000
   H     74.66000000    46.52000000     0.31000000
   H     73.94000000    46.47000000     3.57000000
   H     73.17000000    45.26000000     2.45000000
   H     74.32000000    44.77000000     3.69000000
   N     78.27000000    44.66000000     2.40000000
   C     79.07000000    43.52000000     2.80000000
   C     80.15000000    43.96000000     3.78000000
   O     80.26000000    43.27000000     4.79000000
   C     79.64000000    42.86000000     1.54000000
   C     80.10000000    41.41000000     1.58000000
   C     78.94000000    40.44000000     1.77000000
   C     79.39000000    39.00000000     1.96000000
   N     78.24000000    38.08000000     2.00000000
   H     78.50000000    45.18000000     1.57000000
   H     78.40000000    42.85000000     3.33000000
   H     80.52000000    43.45000000     1.26000000
   H     78.89000000    42.92000000     0.75000000
   H     80.89000000    41.21000000     2.30000000
   H     80.53000000    41.08000000     0.63000000
   H     78.27000000    40.52000000     0.91000000
   H     78.54000000    40.67000000     2.76000000
   H     80.10000000    38.86000000     2.77000000
   H     79.95000000    38.83000000     1.04000000
   H     78.12000000    37.51000000     2.83000000
   H     77.34000000    38.54000000     1.93000000
   H     78.23000000    37.43000000     1.23000000
   N     80.80000000    45.12000000     3.69000000
   C     81.62000000    45.64000000     4.77000000
   C     80.86000000    45.67000000     6.09000000
   O     81.44000000    45.13000000     7.03000000
   C     82.12000000    47.01000000     4.33000000
   C     83.32000000    47.01000000     3.39000000
   C     83.74000000    48.38000000     2.87000000
   O     82.81000000    49.12000000     2.47000000
   O     84.92000000    48.77000000     2.87000000
   H     80.67000000    45.81000000     2.96000000
   H     82.49000000    45.00000000     4.87000000
   H     82.30000000    47.63000000     5.22000000
   H     81.24000000    47.45000000     3.85000000
   H     82.96000000    46.40000000     2.56000000
   H     84.12000000    46.49000000     3.92000000
   N     79.63000000    46.16000000     6.23000000
   C     78.74000000    46.11000000     7.37000000
   H     77.77700000    45.70400000     7.06100000
   H     79.17200000    45.47200000     8.14100000
   H     78.59900000    47.11600000     7.76600000
   H     79.28000000    46.59000000     5.39000000
  Ca     84.69000000    50.74000000     1.07000000
   O     83.08000000    51.31000000    -0.89000000
   H     83.51000000    51.33000000    -1.74000000
   H     82.71000000    52.19000000    -0.79000000
   O     84.04000000    48.63000000    -0.42000000
   H     84.99000000    48.66000000    -0.53000000
   H     83.72000000    48.10000000    -1.15000000

Ca 1.00



