%chk=loop2.apoCaM-CA-Ng.Init295.run80.water2.chk
%nprocshared=20
%mem=10GB
%nosave
#b3lyp/svp scf=(tight,noincore,xqc) Test 
#IOP(5/87=12) Density=Current Pop=(MK,readradii) iop(6/33=2) iop(6/42=6)

loop2.apoCaM-CA-Ng.Init295.run80.water2 

   -2  1 
   C     17.54000000    -0.80000000    57.90000000
   C     17.45000000     0.49000000    58.71000000
   O     17.65000000     1.58000000    58.18000000
   H     18.58100000    -1.11800000    57.83900000
   H     16.95100000    -1.57700000    58.38700000
   H     17.15400000    -0.62700000    56.89600000
   N     17.15000000     0.45000000    60.01000000
   C     17.13000000     1.57000000    60.92000000
   C     16.07000000     2.61000000    60.56000000
   O     16.24000000     3.80000000    60.82000000
   C     17.07000000     1.03000000    62.35000000
   C     17.41000000     2.13000000    63.34000000
   O     16.45000000     2.76000000    63.83000000
   O     18.59000000     2.47000000    63.61000000
   H     16.86000000    -0.44000000    60.40000000
   H     18.09000000     2.05000000    60.77000000
   H     17.75000000     0.20000000    62.57000000
   H     16.08000000     0.66000000    62.61000000
   N     15.00000000     2.17000000    59.89000000
   C     13.85000000     2.98000000    59.56000000
   C     12.66000000     2.04000000    59.39000000
   O     12.85000000     0.87000000    59.06000000
   C     14.18000000     3.63000000    58.22000000
   H     14.86000000     1.20000000    59.66000000
   H     13.70000000     3.68000000    60.38000000
   H     13.27000000     3.99000000    57.73000000
   H     14.89000000     4.46000000    58.23000000
   H     14.52000000     2.88000000    57.52000000
   N     11.42000000     2.42000000    59.72000000
   C     10.99000000     3.73000000    60.16000000
   C     10.12000000     3.61000000    61.40000000
   O      9.16000000     2.84000000    61.39000000
   C     10.16000000     4.36000000    59.05000000
   C      9.76000000     5.80000000    59.35000000
   O     10.49000000     6.52000000    60.06000000
   O      8.63000000     6.19000000    58.99000000
   H     10.75000000     1.67000000    59.69000000
   H     11.81000000     4.45000000    60.27000000
   H      9.26000000     3.75000000    59.04000000
   H     10.59000000     4.41000000    58.05000000
   N     10.36000000     4.32000000    62.50000000
   C      9.77000000     4.16000000    63.82000000
   C     10.65000000     3.26000000    64.67000000
   O     11.85000000     3.49000000    64.83000000
   H     10.91000000     5.17000000    62.52000000
   H      8.78000000     3.71000000    63.78000000
   H      9.65000000     5.14000000    64.28000000
   N     10.05000000     2.39000000    65.49000000
   C      8.67000000     1.98000000    65.63000000
   C      8.14000000     1.24000000    64.40000000
   O      8.73000000     0.20000000    64.13000000
   C      8.55000000     1.06000000    66.84000000
   C      7.16000000     0.56000000    67.19000000
   N      6.39000000     1.25000000    68.04000000
   O      6.66000000    -0.33000000    66.51000000
   H     10.68000000     2.05000000    66.21000000
   H      8.14000000     2.91000000    65.83000000
   H      8.82000000     1.68000000    67.70000000
   H      9.14000000     0.14000000    66.77000000
   H      6.81000000     1.95000000    68.64000000
   H      5.47000000     0.89000000    68.25000000
   N      7.04000000     1.70000000    63.80000000
   C      6.29000000     1.04000000    62.75000000
   C      5.67000000     1.94000000    61.69000000
   O      4.76000000     1.54000000    60.97000000
   H      6.60000000     2.50000000    64.23000000
   H      5.58000000     0.54000000    63.41000000
   H      6.83000000     0.20000000    62.31000000
   N      6.17000000     3.17000000    61.52000000
   C      5.72000000     4.16000000    60.57000000
   C      6.11000000     3.93000000    59.11000000
   O      6.23000000     4.91000000    58.38000000
   C      6.02000000     5.58000000    61.04000000
   C      5.26000000     5.85000000    62.33000000
   O      7.41000000     5.69000000    61.26000000
   H      7.10000000     3.34000000    61.88000000
   H      4.63000000     4.12000000    60.56000000
   H      5.64000000     6.25000000    60.27000000
   H      7.76000000     5.88000000    60.38000000
   H      5.21000000     6.92000000    62.54000000
   H      4.25000000     5.46000000    62.16000000
   H      5.60000000     5.20000000    63.13000000
   N      6.44000000     2.71000000    58.71000000
   C      7.06000000     2.25000000    57.48000000
   C      6.04000000     2.47000000    56.36000000
   O      4.87000000     2.15000000    56.54000000
   C      7.52000000     0.79000000    57.49000000
   C      8.94000000     0.78000000    58.04000000
   C      6.53000000    -0.14000000    58.18000000
   C      9.62000000    -0.58000000    58.00000000
   H      6.33000000     1.97000000    59.38000000
   H      7.92000000     2.90000000    57.36000000
   H      7.66000000     0.47000000    56.45000000
   H      8.99000000     1.09000000    59.09000000
   H      9.51000000     1.52000000    57.48000000
   H      5.50000000     0.05000000    57.90000000
   H      6.75000000    -1.18000000    57.90000000
   H      6.69000000    -0.16000000    59.26000000
   H     10.66000000    -0.45000000    58.31000000
   H      9.08000000    -1.41000000    58.47000000
   H      9.63000000    -0.81000000    56.93000000
   N      6.50000000     3.01000000    55.23000000
   C      5.73000000     3.21000000    54.02000000
   C      6.48000000     2.84000000    52.76000000
   O      7.69000000     3.09000000    52.70000000
   C      5.07000000     4.59000000    53.97000000
   C      5.72000000     5.71000000    54.77000000
   O      5.19000000     6.06000000    55.85000000
   O      6.78000000     6.26000000    54.43000000
   H      7.47000000     3.28000000    55.22000000
   H      4.86000000     2.55000000    54.09000000
   H      4.03000000     4.47000000    54.29000000
   H      4.99000000     4.96000000    52.95000000
   N      5.79000000     2.22000000    51.79000000
   C      6.19000000     2.10000000    50.41000000
   C      7.56000000     1.45000000    50.29000000
   O      7.64000000     0.29000000    50.69000000
   C      5.17000000     1.21000000    49.69000000
   C      5.39000000     1.09000000    48.21000000
   C      5.35000000    -0.16000000    47.59000000
   C      5.45000000     2.25000000    47.42000000
   C      5.48000000    -0.29000000    46.20000000
   C      5.53000000     2.12000000    46.03000000
   C      5.60000000     0.86000000    45.41000000
   H      4.81000000     2.13000000    51.99000000
   H      6.14000000     3.09000000    49.96000000
   H      4.22000000     1.73000000    49.86000000
   H      5.05000000     0.28000000    50.24000000
   H      5.15000000    -1.00000000    48.25000000
   H      5.54000000     3.20000000    47.92000000
   H      5.60000000    -1.23000000    45.68000000
   H      5.82000000     2.97000000    45.44000000
   H      5.74000000     0.66000000    44.36000000
   N      8.62000000     1.97000000    49.65000000
   C      9.86000000     1.23000000    49.63000000
   C     10.50000000     1.07000000    51.00000000
   O     11.37000000     0.21000000    51.13000000
   C     10.77000000     2.03000000    48.69000000
   C     10.32000000     3.48000000    48.82000000
   C      8.84000000     3.30000000    49.13000000
   H      9.77000000     0.29000000    49.08000000
   H     11.83000000     2.01000000    48.93000000
   H     10.58000000     1.72000000    47.66000000
   H     10.80000000     3.91000000    49.70000000
   H     10.55000000     4.12000000    47.96000000
   H      8.51000000     4.03000000    49.87000000
   H      8.21000000     3.52000000    48.26000000
   N     10.10000000     1.78000000    52.06000000
   C     10.66000000     1.52000000    53.37000000
   C     10.27000000     0.12000000    53.83000000
   O     10.96000000    -0.43000000    54.69000000
   C     10.27000000     2.52000000    54.45000000
   C     10.64000000     3.99000000    54.23000000
   C      9.93000000     4.97000000    55.16000000
   O     10.23000000     6.18000000    55.12000000
   O      8.93000000     4.59000000    55.80000000
   H      9.32000000     2.42000000    51.98000000
   H     11.74000000     1.53000000    53.33000000
   H     10.81000000     2.14000000    55.32000000
   H      9.22000000     2.38000000    54.71000000
   H     10.22000000     4.33000000    53.28000000
   H     11.72000000     4.10000000    54.25000000
   N      9.26000000    -0.51000000    53.23000000
   C      8.93000000    -1.88000000    53.56000000
   H      7.95600000    -2.13000000    53.13900000
   H      9.68600000    -2.54600000    53.14600000
   H      8.89700000    -1.99600000    54.64300000
   H      8.55000000    -0.06000000    52.67000000
  Ca      7.57000000     6.67000000    56.77000000
   O      5.93000000     8.06000000    58.31000000
   H      6.24000000     8.38000000    59.16000000
   H      5.05000000     8.41000000    58.22000000
   O      9.95000000     8.18000000    57.00000000
   H     10.52000000     7.59000000    56.52000000
   H      9.91000000     8.97000000    56.47000000

Ca 1.00



