%chk=loop1.apoCaM-CA-Ng.Init295.run82.water6.chk
%nprocshared=20
%mem=10GB
%nosave
#b3lyp/svp scf=(tight,noincore,xqc) Test 
#IOP(5/87=12) Density=Current Pop=(MK,readradii) iop(6/33=2) iop(6/42=6)

loop1.apoCaM-CA-Ng.Init295.run82.water6 

   0  1 
   C     -1.67000000    10.27000000    72.04000000
   C     -0.88000000    11.54000000    71.74000000
   O     -1.37000000    12.46000000    71.09000000
   H     -2.63000000    10.31000000    71.52600000
   H     -1.10900000     9.40200000    71.69400000
   H     -1.83700000    10.19000000    73.11400000
   N      0.39000000    11.72000000    72.12000000
   C      1.36000000    12.72000000    71.74000000
   C      2.66000000    12.12000000    71.22000000
   O      3.00000000    10.98000000    71.55000000
   C      1.61000000    13.56000000    72.99000000
   C      0.38000000    13.83000000    73.83000000
   O      0.33000000    13.37000000    75.00000000
   O     -0.44000000    14.65000000    73.37000000
   H      0.71000000    11.11000000    72.86000000
   H      0.94000000    13.45000000    71.04000000
   H      2.07000000    14.50000000    72.69000000
   H      2.31000000    13.01000000    73.62000000
   N      3.35000000    12.82000000    70.33000000
   C      4.60000000    12.49000000    69.68000000
   C      5.80000000    12.50000000    70.63000000
   O      6.81000000    11.84000000    70.39000000
   C      4.83000000    13.29000000    68.40000000
   C      3.82000000    13.15000000    67.27000000
   C      4.29000000    13.76000000    65.96000000
   C      3.19000000    14.12000000    64.97000000
   N      2.75000000    12.89000000    64.28000000
   H      3.07000000    13.77000000    70.11000000
   H      4.52000000    11.43000000    69.43000000
   H      5.86000000    13.04000000    68.14000000
   H      4.70000000    14.32000000    68.73000000
   H      2.87000000    13.62000000    67.53000000
   H      3.61000000    12.09000000    67.09000000
   H      5.16000000    13.32000000    65.47000000
   H      4.72000000    14.68000000    66.36000000
   H      3.47000000    14.91000000    64.27000000
   H      2.30000000    14.45000000    65.49000000
   H      3.57000000    12.48000000    63.86000000
   H      2.40000000    12.23000000    64.95000000
   H      2.08000000    13.11000000    63.56000000
   N      5.67000000    13.20000000    71.76000000
   C      6.66000000    13.28000000    72.81000000
   C      5.99000000    13.42000000    74.17000000
   O      4.81000000    13.75000000    74.21000000
   C      7.52000000    14.50000000    72.52000000
   C      8.54000000    14.77000000    73.62000000
   O      9.48000000    13.98000000    73.84000000
   O      8.50000000    15.90000000    74.15000000
   H      4.79000000    13.65000000    71.97000000
   H      7.29000000    12.39000000    72.76000000
   H      6.85000000    15.35000000    72.60000000
   H      7.99000000    14.52000000    71.54000000
   N      6.71000000    13.11000000    75.25000000
   C      6.16000000    12.85000000    76.57000000
   C      7.15000000    12.15000000    77.50000000
   O      7.55000000    11.03000000    77.23000000
   H      7.66000000    12.82000000    75.06000000
   H      5.26000000    12.25000000    76.49000000
   H      5.92000000    13.80000000    77.05000000
   N      7.54000000    12.82000000    78.59000000
   C      8.43000000    12.20000000    79.55000000
   C      8.05000000    12.41000000    81.01000000
   O      7.14000000    13.19000000    81.28000000
   C      9.80000000    12.86000000    79.36000000
   C     10.30000000    12.94000000    77.93000000
   O     11.12000000    12.03000000    77.67000000
   O     10.05000000    13.84000000    77.09000000
   H      7.09000000    13.70000000    78.77000000
   H      8.64000000    11.15000000    79.34000000
   H     10.56000000    12.26000000    79.86000000
   H      9.87000000    13.82000000    79.86000000
   N      8.81000000    11.91000000    81.99000000
   C      8.29000000    11.72000000    83.33000000
   C      7.50000000    10.43000000    83.51000000
   O      7.78000000     9.62000000    84.39000000
   H      9.57000000    11.31000000    81.71000000
   H      7.73000000    12.61000000    83.59000000
   H      9.11000000    11.70000000    84.04000000
   N      6.55000000    10.19000000    82.59000000
   C      5.69000000     9.03000000    82.48000000
   C      5.16000000     8.55000000    83.82000000
   O      4.78000000     9.40000000    84.63000000
   C      4.48000000     9.32000000    81.60000000
   C      3.71000000    10.59000000    81.96000000
   O      5.11000000     9.48000000    80.35000000
   H      6.37000000    10.92000000    81.91000000
   H      6.24000000     8.25000000    81.95000000
   H      3.82000000     8.46000000    81.71000000
   H      4.40000000     9.79000000    79.78000000
   H      2.68000000    10.39000000    81.67000000
   H      3.63000000    10.68000000    83.04000000
   H      3.97000000    11.54000000    81.51000000
   N      4.91000000     7.27000000    84.08000000
   C      4.09000000     6.70000000    85.13000000
   C      4.57000000     5.32000000    85.54000000
   O      4.04000000     4.71000000    86.47000000
   C      2.58000000     6.68000000    84.85000000
   C      2.21000000     6.22000000    83.45000000
   C      1.80000000     7.96000000    85.14000000
   C      0.72000000     6.04000000    83.21000000
   H      5.34000000     6.55000000    83.52000000
   H      4.28000000     7.29000000    86.03000000
   H      2.13000000     5.98000000    85.55000000
   H      2.74000000     5.30000000    83.18000000
   H      2.56000000     6.89000000    82.66000000
   H      2.12000000     8.40000000    86.08000000
   H      1.92000000     8.63000000    84.29000000
   H      0.72000000     7.80000000    85.21000000
   H      0.25000000     5.67000000    84.12000000
   H      0.33000000     6.98000000    82.83000000
   H      0.56000000     5.25000000    82.47000000
   N      5.60000000     4.73000000    84.92000000
   C      6.20000000     3.49000000    85.35000000
   C      5.30000000     2.33000000    84.94000000
   O      4.86000000     2.31000000    83.79000000
   C      7.65000000     3.26000000    84.91000000
   C      8.60000000     4.38000000    85.33000000
   O      8.06000000     2.08000000    85.57000000
   H      6.15000000     5.17000000    84.20000000
   H      6.34000000     3.42000000    86.43000000
   H      7.73000000     3.21000000    83.82000000
   H      8.86000000     1.77000000    85.13000000
   H      9.51000000     4.12000000    84.80000000
   H      8.26000000     5.34000000    84.94000000
   H      8.81000000     4.38000000    86.40000000
   N      5.08000000     1.31000000    85.76000000
   C      4.30000000     0.15000000    85.34000000
   C      2.83000000     0.47000000    85.18000000
   O      2.06000000    -0.26000000    84.56000000
   C      4.48000000    -0.98000000    86.35000000
   C      3.72000000    -0.92000000    87.67000000
   O      5.84000000    -1.13000000    86.68000000
   H      5.53000000     1.27000000    86.66000000
   H      4.67000000    -0.25000000    84.39000000
   H      4.15000000    -1.91000000    85.87000000
   H      6.00000000    -1.96000000    87.13000000
   H      3.83000000    -1.82000000    88.26000000
   H      4.19000000    -0.18000000    88.32000000
   H      2.67000000    -0.68000000    87.50000000
   N      2.37000000     1.65000000    85.60000000
   C      0.98000000     2.07000000    85.60000000
   C      0.42000000     2.59000000    84.29000000
   O      1.09000000     2.90000000    83.31000000
   C      0.80000000     3.18000000    86.64000000
   C      1.54000000     2.93000000    87.95000000
   C      1.42000000     4.08000000    88.94000000
   C      2.19000000     3.64000000    90.19000000
   N      2.50000000     4.72000000    91.14000000
   H      3.04000000     2.30000000    85.99000000
   H      0.41000000     1.19000000    85.90000000
   H     -0.26000000     3.25000000    86.88000000
   H      1.15000000     4.09000000    86.16000000
   H      2.60000000     2.95000000    87.71000000
   H      1.17000000     1.99000000    88.37000000
   H      0.40000000     4.36000000    89.20000000
   H      1.90000000     4.96000000    88.52000000
   H      3.12000000     3.19000000    89.83000000
   H      1.55000000     2.95000000    90.73000000
   H      2.96000000     4.46000000    92.00000000
   H      3.10000000     5.45000000    90.79000000
   H      1.62000000     5.13000000    91.45000000
   N     -0.90000000     2.81000000    84.32000000
   C     -1.86000000     3.05000000    83.26000000
   C     -2.00000000     1.84000000    82.34000000
   O     -1.74000000     0.68000000    82.67000000
   C     -3.24000000     3.45000000    83.77000000
   C     -3.22000000     4.74000000    84.60000000
   C     -4.60000000     5.18000000    85.06000000
   O     -4.70000000     5.74000000    86.18000000
   O     -5.62000000     5.21000000    84.34000000
   H     -1.35000000     2.63000000    85.20000000
   H     -1.46000000     3.84000000    82.63000000
   H     -3.63000000     2.70000000    84.46000000
   H     -3.97000000     3.50000000    82.97000000
   H     -2.85000000     5.43000000    83.84000000
   H     -2.50000000     4.74000000    85.41000000
   N     -2.40000000     2.02000000    81.08000000
   C     -2.67000000     3.23000000    80.34000000
   H     -3.52900000     3.73900000    80.77700000
   H     -1.80000000     3.88500000    80.38300000
   H     -2.88600000     2.98100000    79.30100000
   H     -2.51000000     1.15000000    80.58000000
  Ca     11.57000000    13.40000000    75.09000000
   O     11.01000000    15.94000000    75.41000000
   H     10.16000000    16.18000000    75.05000000
   H     11.06000000    16.41000000    76.24000000
   O     13.70000000    11.51000000    74.97000000
   H     14.59000000    11.43000000    75.30000000
   H     13.34000000    10.62000000    75.01000000
   O     10.28000000    11.07000000    74.85000000
   H     10.46000000    10.14000000    74.97000000
   H      9.36000000    11.11000000    74.58000000
   O     13.79000000    14.40000000    74.08000000
   H     14.39000000    15.13000000    74.26000000
   H     14.35000000    13.71000000    73.72000000
   O     11.62000000    12.64000000    72.18000000
   H     12.30000000    12.04000000    71.88000000
   H     10.81000000    12.29000000    71.82000000
   O     13.19000000    14.20000000    77.14000000
   H     13.86000000    14.85000000    77.36000000
   H     12.70000000    14.08000000    77.96000000

Ca 1.00



