%chk=loop2.apoCaM-CA-Ng.Init295.run15.water3.chk
%nprocshared=20
%mem=10GB
%nosave
#b3lyp/svp scf=(tight,noincore,xqc) Test 
#IOP(5/87=12) Density=Current Pop=(MK,readradii) iop(6/33=2) iop(6/42=6)

loop2.apoCaM-CA-Ng.Init295.run15.water3 

   -2  1 
   C     82.13000000    49.56000000    58.41000000
   C     80.97000000    49.85000000    57.46000000
   O     80.00000000    49.10000000    57.47000000
   H     82.95100000    50.24600000    58.20000000
   H     81.79900000    49.69400000    59.44000000
   H     82.46900000    48.53400000    58.26700000
   N     81.13000000    50.88000000    56.63000000
   C     79.99000000    51.40000000    55.89000000
   C     78.81000000    51.92000000    56.69000000
   O     78.81000000    52.17000000    57.90000000
   C     80.45000000    52.57000000    55.03000000
   C     81.52000000    52.35000000    53.97000000
   O     81.72000000    51.24000000    53.43000000
   O     82.37000000    53.25000000    53.82000000
   H     81.94000000    51.48000000    56.75000000
   H     79.58000000    50.63000000    55.24000000
   H     80.73000000    53.39000000    55.69000000
   H     79.57000000    52.93000000    54.51000000
   N     77.66000000    52.13000000    56.05000000
   C     76.38000000    52.32000000    56.71000000
   C     75.97000000    51.38000000    57.83000000
   O     76.41000000    50.23000000    57.89000000
   C     75.33000000    52.43000000    55.60000000
   H     77.61000000    51.94000000    55.06000000
   H     76.36000000    53.32000000    57.15000000
   H     75.62000000    53.18000000    54.87000000
   H     75.24000000    51.49000000    55.06000000
   H     74.43000000    52.76000000    56.11000000
   N     75.07000000    51.72000000    58.75000000
   C     74.58000000    53.06000000    59.01000000
   C     75.54000000    53.90000000    59.84000000
   O     76.28000000    53.43000000    60.70000000
   C     73.23000000    52.92000000    59.71000000
   C     73.04000000    51.77000000    60.69000000
   O     73.15000000    52.07000000    61.90000000
   O     72.70000000    50.63000000    60.31000000
   H     74.77000000    51.00000000    59.40000000
   H     74.47000000    53.58000000    58.06000000
   H     72.45000000    52.92000000    58.96000000
   H     73.13000000    53.90000000    60.18000000
   N     75.48000000    55.22000000    59.64000000
   C     76.54000000    56.16000000    59.97000000
   C     77.67000000    55.97000000    58.97000000
   O     77.41000000    55.42000000    57.90000000
   H     74.81000000    55.53000000    58.95000000
   H     76.89000000    56.05000000    60.99000000
   H     76.15000000    57.16000000    59.74000000
   N     78.91000000    56.34000000    59.28000000
   C     79.23000000    57.11000000    60.46000000
   C     80.26000000    56.48000000    61.39000000
   O     80.72000000    57.14000000    62.33000000
   C     79.59000000    58.53000000    60.02000000
   C     78.72000000    59.25000000    59.01000000
   N     77.48000000    59.64000000    59.32000000
   O     79.12000000    59.49000000    57.87000000
   H     79.61000000    55.94000000    58.66000000
   H     78.42000000    57.30000000    61.15000000
   H     80.59000000    58.50000000    59.59000000
   H     79.66000000    59.16000000    60.91000000
   H     77.21000000    59.42000000    60.27000000
   H     76.88000000    60.19000000    58.72000000
   N     80.64000000    55.21000000    61.26000000
   C     81.57000000    54.51000000    62.12000000
   C     80.95000000    54.12000000    63.46000000
   O     81.72000000    53.68000000    64.30000000
   H     80.31000000    54.62000000    60.51000000
   H     82.42000000    55.17000000    62.29000000
   H     81.99000000    53.60000000    61.69000000
   N     79.62000000    54.14000000    63.59000000
   C     78.92000000    53.55000000    64.72000000
   C     78.36000000    52.16000000    64.47000000
   O     77.79000000    51.83000000    63.43000000
   C     77.73000000    54.41000000    65.12000000
   C     78.35000000    55.64000000    65.77000000
   O     77.08000000    55.04000000    64.04000000
   H     79.07000000    54.58000000    62.87000000
   H     79.66000000    53.47000000    65.52000000
   H     76.97000000    53.94000000    65.75000000
   H     76.66000000    54.35000000    63.52000000
   H     78.84000000    55.41000000    66.71000000
   H     78.99000000    56.05000000    64.99000000
   H     77.52000000    56.32000000    65.98000000
   N     78.51000000    51.34000000    65.51000000
   C     78.16000000    49.93000000    65.48000000
   C     77.37000000    49.51000000    66.71000000
   O     77.46000000    50.04000000    67.82000000
   C     79.35000000    48.99000000    65.36000000
   C     80.06000000    48.96000000    64.01000000
   C     80.36000000    49.24000000    66.47000000
   C     79.12000000    48.19000000    63.09000000
   H     78.80000000    51.71000000    66.40000000
   H     77.57000000    49.77000000    64.58000000
   H     79.01000000    47.97000000    65.57000000
   H     80.99000000    48.40000000    63.94000000
   H     80.13000000    50.00000000    63.68000000
   H     80.08000000    48.84000000    67.45000000
   H     81.28000000    48.71000000    66.20000000
   H     80.75000000    50.25000000    66.61000000
   H     79.61000000    47.95000000    62.15000000
   H     78.88000000    47.20000000    63.48000000
   H     78.18000000    48.73000000    62.94000000
   N     76.52000000    48.51000000    66.52000000
   C     75.37000000    48.22000000    67.35000000
   C     75.00000000    46.74000000    67.26000000
   O     75.06000000    46.22000000    66.15000000
   C     74.17000000    49.09000000    67.00000000
   C     73.81000000    49.16000000    65.52000000
   O     74.39000000    50.02000000    64.82000000
   O     72.87000000    48.51000000    65.01000000
   H     76.50000000    48.05000000    65.61000000
   H     75.72000000    48.45000000    68.35000000
   H     74.52000000    50.11000000    67.19000000
   H     73.30000000    48.78000000    67.59000000
   N     74.53000000    46.18000000    68.38000000
   C     74.32000000    44.76000000    68.57000000
   C     75.33000000    43.89000000    67.84000000
   O     76.52000000    44.13000000    68.08000000
   C     74.27000000    44.42000000    70.06000000
   C     73.81000000    43.04000000    70.44000000
   C     74.76000000    42.01000000    70.53000000
   C     72.43000000    42.80000000    70.54000000
   C     74.30000000    40.76000000    70.97000000
   C     71.93000000    41.53000000    70.85000000
   C     72.92000000    40.58000000    71.13000000
   H     74.33000000    46.85000000    69.11000000
   H     73.30000000    44.58000000    68.23000000
   H     73.63000000    45.15000000    70.56000000
   H     75.24000000    44.64000000    70.51000000
   H     75.80000000    42.16000000    70.28000000
   H     71.71000000    43.56000000    70.29000000
   H     75.03000000    40.00000000    71.18000000
   H     70.90000000    41.22000000    70.91000000
   H     72.46000000    39.64000000    71.42000000
   N     74.97000000    42.82000000    67.12000000
   C     75.93000000    41.81000000    66.73000000
   C     76.89000000    42.25000000    65.64000000
   O     77.60000000    41.41000000    65.07000000
   C     75.14000000    40.56000000    66.37000000
   C     73.70000000    40.85000000    66.81000000
   C     73.64000000    42.37000000    66.77000000
   H     76.58000000    41.51000000    67.56000000
   H     75.19000000    40.32000000    65.31000000
   H     75.47000000    39.69000000    66.93000000
   H     73.01000000    40.41000000    66.09000000
   H     73.41000000    40.52000000    67.81000000
   H     73.37000000    42.62000000    65.75000000
   H     72.99000000    42.77000000    67.55000000
   N     76.84000000    43.47000000    65.11000000
   C     77.57000000    43.94000000    63.94000000
   C     79.04000000    44.26000000    64.13000000
   O     79.72000000    44.35000000    63.11000000
   C     76.93000000    45.20000000    63.36000000
   C     75.54000000    44.82000000    62.85000000
   C     74.98000000    46.01000000    62.08000000
   O     74.78000000    45.78000000    60.87000000
   O     74.75000000    47.07000000    62.69000000
   H     76.29000000    44.10000000    65.68000000
   H     77.62000000    43.12000000    63.23000000
   H     77.56000000    45.46000000    62.52000000
   H     76.88000000    46.03000000    64.07000000
   H     74.89000000    44.61000000    63.71000000
   H     75.61000000    43.93000000    62.22000000
   N     79.61000000    44.32000000    65.34000000
   C     80.91000000    44.93000000    65.53000000
   H     81.61800000    44.50300000    64.82000000
   H     80.83500000    46.00500000    65.36500000
   H     81.25600000    44.74100000    66.54600000
   H     79.07000000    44.21000000    66.18000000
  Ca     73.61000000    49.36000000    62.48000000
   O     74.92000000    48.40000000    59.99000000
   H     74.99000000    47.46000000    60.15000000
   H     74.56000000    48.47000000    59.10000000
   O     71.98000000    47.56000000    61.36000000
   H     72.35000000    46.69000000    61.48000000
   H     71.06000000    47.47000000    61.57000000
   O     76.03000000    50.54000000    61.72000000
   H     76.74000000    50.93000000    62.23000000
   H     76.48000000    49.98000000    61.09000000

Ca 1.00



