%chk=loop1.holoCaM-CaMKII.run84.water2.chk
%nprocshared=20
%mem=10GB
%nosave
#b3lyp/svp scf=(tight,noincore,xqc) Test 
#IOP(5/87=12) Density=Current Pop=(MK,readradii) iop(6/33=2) iop(6/42=6)

loop1.holoCaM-CaMKII.run84.water2 

   0  1 
   C     59.27000000    48.48000000    88.31000000
   C     60.73000000    48.89000000    88.35000000
   O     61.59000000    48.07000000    88.03000000
   H     58.68100000    49.27800000    87.85800000
   H     59.16300000    47.57100000    87.71800000
   H     58.91500000    48.29700000    89.32400000
   N     61.06000000    50.08000000    88.87000000
   C     62.36000000    50.68000000    89.05000000
   C     62.99000000    50.27000000    90.37000000
   O     63.04000000    50.95000000    91.40000000
   C     62.18000000    52.19000000    88.94000000
   C     63.41000000    53.03000000    89.26000000
   O     63.25000000    54.18000000    89.71000000
   O     64.54000000    52.49000000    89.15000000
   H     60.29000000    50.61000000    89.26000000
   H     63.03000000    50.38000000    88.25000000
   H     61.37000000    52.54000000    89.60000000
   H     61.84000000    52.49000000    87.95000000
   N     63.57000000    49.07000000    90.34000000
   C     64.06000000    48.46000000    91.57000000
   C     65.13000000    49.20000000    92.36000000
   O     65.27000000    49.06000000    93.57000000
   C     64.55000000    47.04000000    91.28000000
   C     63.47000000    46.21000000    90.59000000
   C     62.14000000    46.17000000    91.33000000
   C     61.33000000    44.96000000    90.88000000
   N     60.11000000    44.83000000    91.70000000
   H     63.37000000    48.53000000    89.52000000
   H     63.18000000    48.38000000    92.21000000
   H     64.79000000    46.61000000    92.25000000
   H     65.44000000    47.06000000    90.66000000
   H     63.88000000    45.21000000    90.52000000
   H     63.27000000    46.60000000    89.59000000
   H     61.63000000    47.08000000    91.00000000
   H     62.32000000    46.18000000    92.40000000
   H     61.93000000    44.05000000    90.84000000
   H     60.98000000    45.10000000    89.86000000
   H     59.38000000    45.30000000    91.19000000
   H     59.91000000    43.86000000    91.88000000
   H     60.17000000    45.24000000    92.63000000
   N     65.99000000    49.93000000    91.65000000
   C     67.04000000    50.72000000    92.27000000
   C     66.81000000    52.22000000    92.42000000
   O     67.72000000    52.89000000    92.92000000
   C     68.30000000    50.41000000    91.47000000
   C     68.32000000    50.49000000    89.95000000
   O     67.34000000    50.94000000    89.32000000
   O     69.42000000    50.30000000    89.39000000
   H     65.79000000    50.13000000    90.68000000
   H     67.23000000    50.48000000    93.31000000
   H     68.55000000    49.40000000    91.77000000
   H     69.12000000    51.07000000    91.75000000
   N     65.60000000    52.71000000    92.14000000
   C     65.17000000    54.03000000    92.56000000
   C     65.92000000    55.18000000    91.89000000
   O     66.27000000    56.14000000    92.58000000
   H     64.87000000    52.11000000    91.80000000
   H     65.13000000    54.19000000    93.64000000
   H     64.12000000    54.17000000    92.30000000
   N     66.25000000    55.03000000    90.61000000
   C     66.86000000    56.08000000    89.81000000
   C     65.86000000    56.92000000    89.03000000
   O     66.24000000    57.78000000    88.23000000
   C     67.96000000    55.49000000    88.93000000
   C     67.34000000    54.46000000    87.99000000
   O     68.04000000    53.53000000    87.53000000
   O     66.14000000    54.53000000    87.65000000
   H     66.08000000    54.16000000    90.14000000
   H     67.39000000    56.69000000    90.55000000
   H     68.77000000    55.05000000    89.52000000
   H     68.34000000    56.36000000    88.40000000
   N     64.55000000    56.77000000    89.27000000
   C     63.52000000    57.46000000    88.53000000
   C     63.30000000    57.00000000    87.10000000
   O     62.71000000    57.70000000    86.28000000
   H     64.29000000    56.03000000    89.91000000
   H     63.84000000    58.50000000    88.44000000
   H     62.57000000    57.39000000    89.06000000
   N     63.74000000    55.79000000    86.76000000
   C     63.70000000    55.35000000    85.37000000
   C     63.48000000    53.85000000    85.34000000
   O     64.01000000    53.03000000    86.09000000
   C     64.90000000    55.74000000    84.52000000
   C     64.82000000    57.10000000    83.83000000
   O     66.13000000    55.75000000    85.21000000
   H     64.20000000    55.29000000    87.51000000
   H     62.83000000    55.79000000    84.88000000
   H     65.04000000    54.95000000    83.78000000
   H     66.04000000    55.43000000    86.11000000
   H     63.97000000    57.21000000    83.17000000
   H     64.82000000    57.90000000    84.58000000
   H     65.68000000    57.27000000    83.19000000
   N     62.57000000    53.50000000    84.43000000
   C     62.23000000    52.14000000    84.04000000
   C     62.97000000    51.93000000    82.73000000
   O     63.07000000    52.81000000    81.88000000
   C     60.71000000    51.97000000    83.94000000
   C     59.99000000    52.28000000    85.25000000
   C     60.29000000    50.60000000    83.41000000
   C     58.48000000    52.47000000    85.26000000
   H     62.10000000    54.22000000    83.91000000
   H     62.66000000    51.43000000    84.73000000
   H     60.33000000    52.62000000    83.16000000
   H     60.43000000    53.12000000    85.78000000
   H     60.10000000    51.37000000    85.83000000
   H     59.20000000    50.50000000    83.38000000
   H     60.49000000    50.59000000    82.34000000
   H     60.77000000    49.75000000    83.88000000
   H     57.88000000    51.57000000    85.08000000
   H     58.30000000    52.75000000    86.30000000
   H     58.18000000    53.22000000    84.52000000
   N     63.32000000    50.65000000    82.52000000
   C     64.05000000    50.22000000    81.35000000
   C     63.29000000    49.06000000    80.72000000
   O     62.30000000    48.57000000    81.27000000
   C     65.46000000    49.71000000    81.66000000
   C     66.21000000    50.85000000    82.35000000
   O     65.51000000    48.51000000    82.40000000
   H     63.01000000    50.00000000    83.23000000
   H     64.16000000    51.05000000    80.66000000
   H     65.91000000    49.55000000    80.68000000
   H     66.44000000    48.29000000    82.39000000
   H     67.11000000    50.31000000    82.68000000
   H     66.56000000    51.65000000    81.70000000
   H     65.89000000    51.08000000    83.36000000
   N     63.73000000    48.56000000    79.57000000
   C     63.13000000    47.39000000    78.96000000
   C     63.17000000    46.13000000    79.81000000
   O     62.10000000    45.53000000    79.78000000
   C     63.95000000    47.06000000    77.71000000
   C     63.43000000    47.83000000    76.50000000
   O     65.32000000    47.36000000    77.79000000
   H     64.48000000    49.09000000    79.13000000
   H     62.07000000    47.53000000    78.76000000
   H     63.79000000    45.99000000    77.57000000
   H     65.58000000    47.37000000    76.87000000
   H     63.60000000    48.91000000    76.54000000
   H     64.00000000    47.43000000    75.66000000
   H     62.38000000    47.69000000    76.27000000
   N     64.26000000    45.88000000    80.54000000
   C     64.46000000    44.91000000    81.60000000
   C     63.50000000    45.13000000    82.76000000
   O     62.87000000    44.23000000    83.30000000
   C     65.93000000    44.96000000    82.03000000
   C     66.40000000    44.00000000    83.11000000
   C     66.15000000    44.35000000    84.57000000
   C     66.73000000    43.26000000    85.45000000
   N     66.01000000    41.98000000    85.52000000
   H     65.02000000    46.53000000    80.40000000
   H     64.33000000    43.92000000    81.17000000
   H     66.18000000    45.96000000    82.38000000
   H     66.58000000    44.86000000    81.16000000
   H     67.48000000    43.94000000    82.92000000
   H     65.97000000    43.02000000    82.90000000
   H     65.11000000    44.61000000    84.79000000
   H     66.71000000    45.24000000    84.86000000
   H     66.66000000    43.53000000    86.50000000
   H     67.80000000    43.05000000    85.33000000
   H     65.95000000    41.48000000    84.65000000
   H     66.44000000    41.30000000    86.14000000
   H     65.04000000    42.13000000    85.76000000
   N     63.39000000    46.39000000    83.20000000
   C     62.68000000    46.71000000    84.42000000
   C     61.17000000    46.60000000    84.21000000
   O     60.52000000    46.16000000    85.15000000
   C     63.20000000    48.01000000    85.01000000
   C     64.52000000    47.82000000    85.74000000
   C     64.81000000    49.10000000    86.51000000
   O     65.41000000    49.15000000    87.61000000
   O     64.41000000    50.17000000    86.01000000
   H     63.88000000    47.08000000    82.66000000
   H     62.81000000    45.96000000    85.21000000
   H     62.52000000    48.32000000    85.81000000
   H     63.22000000    48.76000000    84.21000000
   H     65.42000000    47.66000000    85.14000000
   H     64.47000000    46.94000000    86.39000000
   N     60.61000000    46.89000000    83.03000000
   C     59.33000000    46.39000000    82.57000000
   H     58.61100000    47.20900000    82.53600000
   H     59.44200000    45.96500000    81.57300000
   H     58.97200000    45.62100000    83.25500000
   H     61.10000000    47.47000000    82.36000000
  Ca     66.02000000    51.76000000    87.25000000
   O     66.93000000    53.10000000    84.88000000
   H     67.34000000    52.83000000    84.06000000
   H     67.15000000    54.03000000    84.97000000
   O     68.16000000    50.16000000    86.65000000
   H     68.60000000    50.09000000    87.49000000
   H     68.17000000    49.27000000    86.30000000

Ca 1.00



