%chk=loop4.apoCaM-CA-Ng.Init31.run41.water3.chk
%nprocshared=20
%mem=10GB
%nosave
#b3lyp/svp scf=(tight,noincore,xqc) Test 
#IOP(5/87=12) Density=Current Pop=(MK,readradii) iop(6/33=2) iop(6/42=6)

loop4.apoCaM-CA-Ng.Init31.run41.water3 

   -3  1 
   C     97.41000000    48.11000000     0.51000000
   C     98.82000000    47.73000000     0.93000000
   O     99.40000000    48.39000000     1.79000000
   H     96.76600000    48.14300000     1.38900000
   H     97.42400000    49.09000000     0.03400000
   H     97.02800000    47.37000000    -0.19200000
   N     99.53000000    46.69000000     0.49000000
   C     99.21000000    45.48000000    -0.25000000
   C     99.39000000    44.22000000     0.59000000
   O     98.73000000    43.23000000     0.31000000
   C     99.91000000    45.39000000    -1.60000000
   C     99.74000000    46.41000000    -2.71000000
   O    100.37000000    46.23000000    -3.78000000
   O     98.77000000    47.21000000    -2.71000000
   H    100.45000000    46.64000000     0.92000000
   H     98.16000000    45.35000000    -0.48000000
   H     99.60000000    44.46000000    -2.09000000
   H    100.98000000    45.31000000    -1.39000000
   N    100.19000000    44.25000000     1.66000000
   C    100.41000000    43.16000000     2.59000000
   C    101.03000000    41.98000000     1.85000000
   O    100.62000000    40.84000000     2.03000000
   C    101.30000000    43.55000000     3.76000000
   C    100.87000000    44.80000000     4.53000000
   C    101.41000000    42.32000000     4.66000000
   C     99.40000000    44.97000000     4.88000000
   H    100.51000000    45.12000000     2.04000000
   H     99.41000000    42.87000000     2.94000000
   H    102.30000000    43.73000000     3.35000000
   H    101.20000000    45.70000000     4.01000000
   H    101.53000000    44.89000000     5.40000000
   H    102.05000000    41.50000000     4.36000000
   H    101.92000000    42.59000000     5.58000000
   H    100.43000000    41.97000000     4.97000000
   H     99.14000000    45.67000000     5.67000000
   H     99.02000000    45.38000000     3.95000000
   H     98.92000000    44.01000000     5.09000000
   N    102.02000000    42.21000000     0.99000000
   C    102.81000000    41.20000000     0.31000000
   C    103.10000000    41.54000000    -1.15000000
   O    103.60000000    40.72000000    -1.91000000
   C    104.05000000    40.89000000     1.14000000
   C    104.88000000    39.70000000     0.67000000
   O    104.34000000    38.75000000     0.07000000
   O    106.10000000    39.72000000     0.95000000
   H    102.26000000    43.18000000     0.83000000
   H    102.14000000    40.34000000     0.35000000
   H    103.70000000    40.71000000     2.16000000
   H    104.58000000    41.83000000     1.24000000
   N    102.59000000    42.67000000    -1.63000000
   C    102.53000000    43.01000000    -3.04000000
   C    103.78000000    43.67000000    -3.61000000
   O    104.80000000    43.82000000    -2.94000000
   H    102.18000000    43.37000000    -1.02000000
   H    101.69000000    43.71000000    -3.07000000
   H    102.20000000    42.18000000    -3.66000000
   N    103.67000000    44.12000000    -4.86000000
   C    104.78000000    44.45000000    -5.73000000
   C    105.33000000    43.20000000    -6.40000000
   O    104.69000000    42.16000000    -6.33000000
   C    104.39000000    45.51000000    -6.76000000
   C    103.12000000    45.25000000    -7.56000000
   O    103.14000000    44.45000000    -8.52000000
   O    102.05000000    45.80000000    -7.23000000
   H    102.83000000    43.87000000    -5.36000000
   H    105.58000000    44.83000000    -5.10000000
   H    105.13000000    45.74000000    -7.52000000
   H    104.42000000    46.47000000    -6.24000000
   N    106.48000000    43.25000000    -7.08000000
   C    107.53000000    44.23000000    -6.88000000
   C    108.92000000    43.72000000    -6.55000000
   O    109.04000000    42.74000000    -5.82000000
   H    106.69000000    42.40000000    -7.57000000
   H    107.31000000    44.82000000    -5.99000000
   H    107.47000000    44.99000000    -7.67000000
   N    110.02000000    44.22000000    -7.12000000
   C    110.24000000    45.46000000    -7.84000000
   C    109.63000000    46.70000000    -7.22000000
   O    108.47000000    47.03000000    -7.46000000
   C    109.78000000    45.09000000    -9.25000000
   C    110.08000000    46.13000000   -10.33000000
   C    109.63000000    45.70000000   -11.72000000
   N    109.21000000    46.67000000   -12.53000000
   O    109.61000000    44.52000000   -12.07000000
   H    110.83000000    43.68000000    -6.88000000
   H    111.31000000    45.65000000    -7.92000000
   H    108.71000000    44.94000000    -9.35000000
   H    110.35000000    44.23000000    -9.58000000
   H    111.16000000    46.27000000   -10.36000000
   H    109.61000000    47.07000000   -10.05000000
   H    109.22000000    47.60000000   -12.15000000
   H    108.70000000    46.43000000   -13.37000000
   N    110.39000000    47.37000000    -6.35000000
   C    110.10000000    48.52000000    -5.51000000
   C    110.77000000    48.38000000    -4.15000000
   O    111.88000000    47.85000000    -4.14000000
   C    110.41000000    49.85000000    -6.19000000
   C    109.63000000    50.14000000    -7.48000000
   C    111.82000000    50.21000000    -6.65000000
   H    111.35000000    47.06000000    -6.26000000
   H    109.03000000    48.48000000    -5.31000000
   H    110.15000000    50.62000000    -5.46000000
   H    110.00000000    51.07000000    -7.89000000
   H    109.71000000    49.30000000    -8.17000000
   H    108.63000000    50.40000000    -7.15000000
   H    111.87000000    51.15000000    -7.19000000
   H    112.56000000    50.31000000    -5.86000000
   H    112.17000000    49.39000000    -7.27000000
   N    110.13000000    48.88000000    -3.09000000
   C    110.78000000    48.89000000    -1.80000000
   C    110.51000000    50.18000000    -1.03000000
   O    110.38000000    50.27000000     0.19000000
   C    110.59000000    47.57000000    -1.06000000
   C    111.56000000    47.27000000     0.08000000
   N    111.10000000    47.59000000     1.29000000
   O    112.70000000    46.85000000    -0.09000000
   H    109.20000000    49.22000000    -3.27000000
   H    111.84000000    48.92000000    -2.04000000
   H    110.65000000    46.78000000    -1.81000000
   H    109.55000000    47.63000000    -0.74000000
   H    110.21000000    48.05000000     1.40000000
   H    111.77000000    47.58000000     2.04000000
   N    110.32000000    51.27000000    -1.77000000
   C    109.88000000    52.59000000    -1.37000000
   C    109.08000000    53.15000000    -2.53000000
   O    109.28000000    52.76000000    -3.68000000
   C    111.03000000    53.54000000    -1.05000000
   C    110.74000000    54.98000000    -0.69000000
   C    110.68000000    56.00000000    -1.64000000
   C    110.49000000    55.29000000     0.65000000
   C    110.36000000    57.31000000    -1.27000000
   C    110.08000000    56.58000000     1.04000000
   C    110.03000000    57.60000000     0.07000000
   O    109.60000000    58.85000000     0.41000000
   H    110.51000000    51.16000000    -2.76000000
   H    109.24000000    52.46000000    -0.49000000
   H    111.66000000    53.67000000    -1.93000000
   H    111.60000000    53.19000000    -0.19000000
   H    110.84000000    55.82000000    -2.70000000
   H    110.60000000    54.44000000     1.30000000
   H    110.25000000    58.15000000    -1.94000000
   H    109.73000000    56.87000000     2.02000000
   H    109.66000000    59.43000000    -0.35000000
   N    108.08000000    54.00000000    -2.27000000
   C    106.99000000    54.27000000    -3.18000000
   C    105.72000000    53.75000000    -2.52000000
   O    105.38000000    54.19000000    -1.43000000
   C    106.89000000    55.77000000    -3.46000000
   C    105.71000000    56.33000000    -4.25000000
   C    106.00000000    57.78000000    -4.59000000
   O    105.15000000    58.65000000    -4.29000000
   O    107.07000000    58.15000000    -5.12000000
   H    107.93000000    54.19000000    -1.29000000
   H    107.12000000    53.76000000    -4.14000000
   H    107.80000000    55.91000000    -4.04000000
   H    106.89000000    56.28000000    -2.49000000
   H    104.76000000    56.26000000    -3.72000000
   H    105.57000000    55.80000000    -5.19000000
   N    105.06000000    52.80000000    -3.19000000
   C    103.74000000    52.40000000    -2.74000000
   C    103.76000000    51.17000000    -1.83000000
   O    102.73000000    50.91000000    -1.23000000
   C    102.81000000    52.21000000    -3.93000000
   C    101.34000000    52.11000000    -3.56000000
   C    100.61000000    50.83000000    -3.94000000
   O     99.97000000    50.81000000    -5.01000000
   O    100.64000000    49.81000000    -3.22000000
   H    105.42000000    52.49000000    -4.08000000
   H    103.29000000    53.18000000    -2.13000000
   H    103.12000000    51.36000000    -4.55000000
   H    102.96000000    53.08000000    -4.57000000
   H    100.93000000    52.86000000    -4.24000000
   H    101.18000000    52.49000000    -2.55000000
   N    104.94000000    50.58000000    -1.61000000
   C    105.18000000    49.71000000    -0.48000000
   H    105.97900000    50.12500000     0.13400000
   H    104.27100000    49.62800000     0.11500000
   H    105.47200000    48.72200000    -0.83700000
   H    105.72000000    50.86000000    -2.18000000
  Ca     99.10000000    48.34000000    -4.95800000
   O    101.54800000    48.11000000    -6.22800000
   H    102.29800000    48.63000000    -6.51800000
   H    101.78800000    47.20000000    -6.42800000
   O     98.80000000    49.00000000    -7.46800000
   H     98.03000000    49.15000000    -8.00800000
   H     99.54000000    49.27000000    -8.01800000
   O     98.20000000    46.11000000    -6.11800000
   H     98.32000000    45.64000000    -6.93800000
   H     97.64000000    45.54000000    -5.58800000

Ca 1.00



