%chk=loop1.apoCaM-CA-Ng.Init31.run50.water4.chk
%nprocshared=20
%mem=10GB
%nosave
#b3lyp/svp scf=(tight,noincore,xqc) Test 
#IOP(5/87=12) Density=Current Pop=(MK,readradii) iop(6/33=2) iop(6/42=6)

loop1.apoCaM-CA-Ng.Init31.run50.water4 

   0  1 
   C     85.59000000    63.58000000    39.05000000
   C     84.98000000    64.95000000    38.80000000
   O     85.18000000    65.85000000    39.60000000
   H     86.54000000    63.69600000    39.57200000
   H     84.91100000    62.98500000    39.66100000
   H     85.75800000    63.07700000    38.09800000
   N     84.23000000    65.09000000    37.70000000
   C     83.59000000    66.34000000    37.34000000
   C     82.08000000    66.15000000    37.35000000
   O     81.61000000    65.05000000    37.63000000
   C     84.25000000    66.83000000    36.05000000
   C     83.89000000    68.28000000    35.73000000
   O     83.23000000    69.00000000    36.51000000
   O     84.27000000    68.75000000    34.64000000
   H     84.18000000    64.32000000    37.06000000
   H     83.83000000    67.13000000    38.05000000
   H     83.93000000    66.19000000    35.23000000
   H     85.33000000    66.83000000    36.16000000
   N     81.28000000    67.16000000    36.99000000
   C     79.85000000    66.98000000    36.85000000
   C     79.46000000    66.13000000    35.65000000
   O     78.82000000    65.11000000    35.90000000
   C     79.05000000    68.26000000    37.05000000
   C     79.02000000    68.71000000    38.51000000
   C     78.82000000    70.19000000    38.78000000
   C     78.29000000    70.29000000    40.21000000
   N     78.02000000    71.67000000    40.64000000
   H     81.76000000    68.04000000    36.89000000
   H     79.59000000    66.38000000    37.72000000
   H     78.03000000    68.21000000    36.67000000
   H     79.47000000    69.05000000    36.43000000
   H     79.94000000    68.36000000    38.98000000
   H     78.15000000    68.25000000    38.98000000
   H     78.13000000    70.71000000    38.12000000
   H     79.72000000    70.76000000    38.55000000
   H     79.01000000    69.81000000    40.86000000
   H     77.46000000    69.60000000    40.33000000
   H     78.85000000    72.16000000    40.94000000
   H     77.63000000    72.23000000    39.89000000
   H     77.41000000    71.76000000    41.44000000
   N     79.80000000    66.43000000    34.39000000
   C     80.58000000    67.55000000    33.91000000
   C     81.33000000    67.13000000    32.65000000
   O     80.86000000    66.33000000    31.83000000
   C     79.63000000    68.70000000    33.56000000
   C     80.49000000    69.91000000    33.23000000
   O     81.57000000    70.09000000    33.83000000
   O     80.01000000    70.68000000    32.37000000
   H     79.61000000    65.77000000    33.65000000
   H     81.21000000    67.86000000    34.74000000
   H     78.93000000    68.89000000    34.37000000
   H     79.06000000    68.36000000    32.70000000
   N     82.53000000    67.67000000    32.45000000
   C     83.29000000    67.46000000    31.23000000
   C     84.69000000    68.06000000    31.25000000
   O     85.62000000    67.33000000    31.60000000
   H     82.85000000    68.30000000    33.17000000
   H     82.66000000    67.79000000    30.41000000
   H     83.45000000    66.38000000    31.25000000
   N     84.82000000    69.36000000    30.96000000
   C     86.05000000    70.11000000    31.00000000
   C     86.98000000    69.92000000    29.80000000
   O     86.57000000    70.03000000    28.65000000
   C     85.80000000    71.58000000    31.31000000
   C     84.99000000    71.84000000    32.57000000
   O     85.54000000    71.90000000    33.69000000
   O     83.76000000    71.95000000    32.44000000
   H     83.99000000    69.88000000    30.69000000
   H     86.58000000    69.74000000    31.88000000
   H     85.27000000    71.96000000    30.43000000
   H     86.78000000    71.97000000    31.59000000
   N     88.30000000    69.73000000    29.89000000
   C     89.14000000    69.64000000    31.07000000
   C     90.12000000    70.76000000    31.39000000
   O     90.82000000    70.68000000    32.40000000
   H     88.72000000    69.42000000    29.03000000
   H     89.63000000    68.67000000    31.02000000
   H     88.55000000    69.48000000    31.98000000
   N     90.26000000    71.76000000    30.52000000
   C     91.16000000    72.89000000    30.58000000
   C     92.60000000    72.42000000    30.42000000
   O     93.53000000    72.83000000    31.11000000
   C     91.06000000    73.72000000    31.86000000
   C     89.60000000    74.03000000    32.19000000
   O     91.75000000    74.95000000    31.86000000
   H     89.76000000    71.67000000    29.64000000
   H     90.88000000    73.50000000    29.72000000
   H     91.50000000    73.08000000    32.62000000
   H     92.61000000    74.64000000    32.17000000
   H     89.11000000    74.70000000    31.48000000
   H     88.99000000    73.13000000    32.24000000
   H     89.52000000    74.49000000    33.17000000
   N     92.82000000    71.62000000    29.38000000
   C     94.09000000    71.31000000    28.76000000
   C     94.77000000    72.53000000    28.15000000
   O     94.85000000    72.75000000    26.94000000
   C     94.99000000    70.42000000    29.61000000
   C     94.24000000    69.24000000    30.23000000
   C     96.33000000    70.03000000    28.99000000
   C     93.63000000    68.31000000    29.19000000
   H     91.96000000    71.37000000    28.90000000
   H     93.93000000    70.75000000    27.83000000
   H     95.26000000    71.05000000    30.46000000
   H     93.40000000    69.65000000    30.78000000
   H     94.94000000    68.63000000    30.80000000
   H     96.81000000    70.93000000    28.60000000
   H     96.96000000    69.57000000    29.75000000
   H     96.19000000    69.33000000    28.16000000
   H     94.31000000    68.07000000    28.37000000
   H     93.17000000    67.47000000    29.71000000
   H     92.84000000    68.90000000    28.74000000
   N     95.39000000    73.35000000    28.99000000
   C     96.34000000    74.40000000    28.65000000
   C     97.57000000    74.16000000    29.51000000
   O     97.51000000    73.52000000    30.56000000
   C     95.76000000    75.78000000    28.95000000
   C     95.38000000    76.10000000    30.39000000
   O     94.72000000    76.13000000    28.08000000
   H     95.18000000    73.30000000    29.98000000
   H     96.58000000    74.16000000    27.61000000
   H     96.61000000    76.44000000    28.76000000
   H     95.11000000    76.48000000    27.27000000
   H     94.46000000    75.60000000    30.69000000
   H     96.21000000    75.66000000    30.95000000
   H     95.28000000    77.18000000    30.54000000
   N     98.76000000    74.55000000    29.04000000
   C    100.02000000    74.18000000    29.66000000
   C    100.20000000    75.02000000    30.92000000
   O    100.40000000    76.23000000    30.81000000
   C    101.17000000    74.40000000    28.68000000
   C    102.56000000    73.97000000    29.15000000
   O    100.91000000    73.64000000    27.53000000
   H     98.70000000    75.21000000    28.28000000
   H     99.96000000    73.13000000    29.94000000
   H    101.12000000    75.40000000    28.26000000
   H     99.99000000    73.83000000    27.34000000
   H    102.68000000    72.89000000    29.20000000
   H    103.29000000    74.42000000    28.48000000
   H    102.82000000    74.42000000    30.11000000
   N    100.28000000    74.35000000    32.07000000
   C    100.00000000    74.88000000    33.39000000
   C     98.66000000    75.57000000    33.57000000
   O     98.31000000    76.47000000    32.80000000
   C    101.25000000    75.64000000    33.84000000
   C    101.28000000    75.73000000    35.37000000
   C    102.64000000    76.17000000    35.88000000
   C    102.76000000    76.55000000    37.35000000
   N    103.96000000    77.29000000    37.76000000
   H    100.09000000    73.37000000    31.97000000
   H     99.97000000    74.02000000    34.06000000
   H    101.24000000    76.66000000    33.47000000
   H    102.15000000    75.12000000    33.49000000
   H    101.03000000    74.81000000    35.90000000
   H    100.45000000    76.38000000    35.63000000
   H    102.92000000    77.09000000    35.36000000
   H    103.33000000    75.36000000    35.61000000
   H    102.53000000    75.77000000    38.07000000
   H    101.92000000    77.23000000    37.50000000
   H    103.93000000    77.35000000    38.76000000
   H    104.73000000    76.69000000    37.50000000
   H    104.10000000    78.18000000    37.28000000
   N     97.80000000    75.06000000    34.46000000
   C     96.38000000    75.34000000    34.47000000
   C     95.41000000    74.49000000    33.67000000
   O     94.34000000    74.96000000    33.29000000
   C     96.05000000    75.52000000    35.95000000
   C     94.60000000    75.75000000    36.35000000
   C     94.47000000    76.06000000    37.84000000
   O     93.34000000    76.30000000    38.31000000
   O     95.44000000    75.83000000    38.59000000
   H     98.22000000    74.43000000    35.14000000
   H     96.27000000    76.34000000    34.05000000
   H     96.66000000    76.37000000    36.26000000
   H     96.45000000    74.71000000    36.56000000
   H     94.14000000    74.78000000    36.18000000
   H     94.19000000    76.57000000    35.76000000
   N     95.65000000    73.18000000    33.50000000
   C     96.78000000    72.42000000    33.99000000
   H     97.60200000    73.09800000    34.21800000
   H     96.49300000    71.88200000    34.89400000
   H     97.09700000    71.70800000    33.22800000
   H     95.00000000    72.67000000    32.92000000
  Ca     83.40000000    71.26000000    35.14000000
   O     82.03000000    72.02000000    37.32000000
   H     81.86000000    72.96000000    37.39000000
   H     82.14000000    71.73000000    38.22000000
   O     81.60000000    72.94000000    34.11000000
   H     80.68000000    73.07000000    33.84000000
   H     82.02000000    73.78000000    33.93000000
   O     85.52000000    71.25000000    36.87000000
   H     85.82000000    71.72000000    37.65000000
   H     86.25000000    70.67000000    36.65000000
   O     84.26000000    73.66000000    35.94000000
   H     85.22000000    73.71000000    35.92000000
   H     83.97000000    74.57000000    36.00000000

Ca 1.00



