%chk=loop1.apoCaM-CA-Ng.Init293.run3.water3.chk
%nprocshared=20
%mem=10GB
%nosave
#b3lyp/svp scf=(tight,noincore,xqc) Test 
#IOP(5/87=12) Density=Current Pop=(MK,readradii) iop(6/33=2) iop(6/42=6)

loop1.apoCaM-CA-Ng.Init293.run3.water3 

   0  1 
   C     44.25000000    41.07000000    22.13000000
   C     44.26000000    40.92000000    20.61000000
   O     45.27000000    41.15000000    19.96000000
   H     43.62300000    41.91800000    22.40700000
   H     43.85200000    40.16200000    22.58300000
   H     45.26600000    41.23900000    22.48600000
   N     43.10000000    40.57000000    20.06000000
   C     42.98000000    40.54000000    18.61000000
   C     41.92000000    41.50000000    18.08000000
   O     41.33000000    41.26000000    17.04000000
   C     42.79000000    39.12000000    18.07000000
   C     41.44000000    38.49000000    18.39000000
   O     40.69000000    38.89000000    19.31000000
   O     41.09000000    37.50000000    17.72000000
   H     42.31000000    40.36000000    20.66000000
   H     43.92000000    40.87000000    18.19000000
   H     43.59000000    38.49000000    18.46000000
   H     42.95000000    39.12000000    16.99000000
   N     41.65000000    42.63000000    18.74000000
   C     40.66000000    43.62000000    18.40000000
   C     41.23000000    45.02000000    18.55000000
   O     41.22000000    45.55000000    19.66000000
   C     39.36000000    43.44000000    19.19000000
   C     38.64000000    42.10000000    19.06000000
   C     37.89000000    41.94000000    17.74000000
   C     37.49000000    40.48000000    17.49000000
   N     38.74000000    39.71000000    17.46000000
   H     42.15000000    42.75000000    19.62000000
   H     40.48000000    43.53000000    17.33000000
   H     38.60000000    44.16000000    18.89000000
   H     39.58000000    43.52000000    20.25000000
   H     37.89000000    42.11000000    19.85000000
   H     39.38000000    41.31000000    19.19000000
   H     38.58000000    42.21000000    16.94000000
   H     37.01000000    42.57000000    17.70000000
   H     36.96000000    40.42000000    16.54000000
   H     36.82000000    40.06000000    18.24000000
   H     39.27000000    39.69000000    18.32000000
   H     38.58000000    38.77000000    17.10000000
   H     39.26000000    40.10000000    16.69000000
   N     41.89000000    45.65000000    17.57000000
   C     41.95000000    45.38000000    16.15000000
   C     40.56000000    45.50000000    15.52000000
   O     39.51000000    45.21000000    16.10000000
   C     42.73000000    44.12000000    15.79000000
   C     43.99000000    43.65000000    16.51000000
   O     44.55000000    42.57000000    16.20000000
   O     44.64000000    44.38000000    17.29000000
   H     42.15000000    46.56000000    17.92000000
   H     42.51000000    46.15000000    15.63000000
   H     42.88000000    44.19000000    14.72000000
   H     41.94000000    43.37000000    15.87000000
   N     40.38000000    45.73000000    14.22000000
   C     41.30000000    45.96000000    13.13000000
   C     40.57000000    45.52000000    11.87000000
   O     39.58000000    46.19000000    11.57000000
   H     39.41000000    45.76000000    13.94000000
   H     42.30000000    45.52000000    13.20000000
   H     41.46000000    47.03000000    12.97000000
   N     40.81000000    44.35000000    11.28000000
   C     41.94000000    43.47000000    11.52000000
   C     41.53000000    42.46000000    12.58000000
   O     40.42000000    42.51000000    13.11000000
   C     42.19000000    42.64000000    10.26000000
   C     40.97000000    41.91000000     9.70000000
   O     40.68000000    40.81000000    10.21000000
   O     40.34000000    42.32000000     8.70000000
   H     40.16000000    44.07000000    10.56000000
   H     42.84000000    44.02000000    11.79000000
   H     43.02000000    42.00000000    10.55000000
   H     42.50000000    43.28000000     9.44000000
   N     42.48000000    41.60000000    12.92000000
   C     42.44000000    40.81000000    14.13000000
   C     43.54000000    39.77000000    14.28000000
   O     43.33000000    38.71000000    13.70000000
   H     43.34000000    41.67000000    12.39000000
   H     41.55000000    40.18000000    14.19000000
   H     42.38000000    41.47000000    14.99000000
   N     44.54000000    39.94000000    15.16000000
   C     45.53000000    38.98000000    15.58000000
   C     46.05000000    39.07000000    17.01000000
   O     46.19000000    40.18000000    17.54000000
   C     46.72000000    38.98000000    14.61000000
   C     47.64000000    37.77000000    14.67000000
   O     47.41000000    40.18000000    14.89000000
   H     44.50000000    40.84000000    15.63000000
   H     45.08000000    38.00000000    15.41000000
   H     46.27000000    39.16000000    13.64000000
   H     47.38000000    40.75000000    14.12000000
   H     47.01000000    36.90000000    14.45000000
   H     48.33000000    37.82000000    13.84000000
   H     48.03000000    37.63000000    15.68000000
   N     46.24000000    37.93000000    17.67000000
   C     46.78000000    37.83000000    19.01000000
   C     48.28000000    37.59000000    19.14000000
   O     48.85000000    37.38000000    20.20000000
   C     45.93000000    36.83000000    19.79000000
   C     45.86000000    37.33000000    21.23000000
   C     46.35000000    35.36000000    19.69000000
   C     45.09000000    36.55000000    22.29000000
   H     46.01000000    37.06000000    17.21000000
   H     46.59000000    38.81000000    19.44000000
   H     44.92000000    36.97000000    19.43000000
   H     45.35000000    38.28000000    21.09000000
   H     46.82000000    37.45000000    21.74000000
   H     47.36000000    35.21000000    20.09000000
   H     45.67000000    34.71000000    20.23000000
   H     46.46000000    34.98000000    18.68000000
   H     44.07000000    36.50000000    21.92000000
   H     45.46000000    35.55000000    22.50000000
   H     45.18000000    37.10000000    23.23000000
   N     49.04000000    37.69000000    18.05000000
   C     50.48000000    37.52000000    18.06000000
   C     51.34000000    38.57000000    18.75000000
   O     52.47000000    38.26000000    19.10000000
   C     51.06000000    37.11000000    16.71000000
   C     51.23000000    38.35000000    15.84000000
   O     50.27000000    36.19000000    16.00000000
   H     48.57000000    37.85000000    17.17000000
   H     50.65000000    36.61000000    18.63000000
   H     52.04000000    36.63000000    16.79000000
   H     50.26000000    35.35000000    16.46000000
   H     50.78000000    38.18000000    14.86000000
   H     50.80000000    39.27000000    16.23000000
   H     52.28000000    38.55000000    15.60000000
   N     50.83000000    39.76000000    19.09000000
   C     51.55000000    40.83000000    19.76000000
   C     52.73000000    41.33000000    18.93000000
   O     53.15000000    40.61000000    18.04000000
   C     52.03000000    40.45000000    21.15000000
   C     51.03000000    39.69000000    22.02000000
   O     52.16000000    41.69000000    21.81000000
   H     49.88000000    39.95000000    18.78000000
   H     50.85000000    41.66000000    19.82000000
   H     52.92000000    39.82000000    21.14000000
   H     52.44000000    41.57000000    22.72000000
   H     51.00000000    38.64000000    21.75000000
   H     51.42000000    39.77000000    23.04000000
   H     50.05000000    40.16000000    21.92000000
   N     53.24000000    42.52000000    19.23000000
   C     54.52000000    43.05000000    18.78000000
   C     54.43000000    44.48000000    18.27000000
   O     55.35000000    44.74000000    17.50000000
   C     55.58000000    42.80000000    19.85000000
   C     55.86000000    41.44000000    20.47000000
   C     56.99000000    41.41000000    21.50000000
   C     57.37000000    40.06000000    22.10000000
   N     57.48000000    38.91000000    21.19000000
   H     52.84000000    42.92000000    20.07000000
   H     54.79000000    42.43000000    17.92000000
   H     55.40000000    43.50000000    20.67000000
   H     56.54000000    43.08000000    19.42000000
   H     56.11000000    40.67000000    19.74000000
   H     54.93000000    41.08000000    20.92000000
   H     56.82000000    42.12000000    22.31000000
   H     57.85000000    41.83000000    21.00000000
   H     56.51000000    39.77000000    22.71000000
   H     58.26000000    40.28000000    22.70000000
   H     58.15000000    39.10000000    20.47000000
   H     57.72000000    38.02000000    21.61000000
   H     56.64000000    38.93000000    20.64000000
   N     53.60000000    45.46000000    18.63000000
   C     52.70000000    45.78000000    19.71000000
   C     53.26000000    45.67000000    21.12000000
   O     52.68000000    45.15000000    22.07000000
   C     51.34000000    45.08000000    19.68000000
   C     50.61000000    44.88000000    18.35000000
   C     49.34000000    44.05000000    18.48000000
   O     49.35000000    42.88000000    18.05000000
   O     48.30000000    44.62000000    18.87000000
   H     53.71000000    46.31000000    18.09000000
   H     52.47000000    46.85000000    19.64000000
   H     50.72000000    45.57000000    20.43000000
   H     51.40000000    44.06000000    20.04000000
   H     51.30000000    44.58000000    17.57000000
   H     50.31000000    45.89000000    18.08000000
   N     54.41000000    46.30000000    21.37000000
   C     55.07000000    46.37000000    22.66000000
   H     55.96600000    46.98500000    22.57600000
   H     54.39400000    46.81200000    23.39100000
   H     55.34800000    45.36600000    22.98200000
   H     54.78000000    46.77000000    20.55000000
  Ca     46.64000000    42.72000000    18.00000000
   O     48.08000000    41.27000000    20.04000000
   H     47.86000000    40.64000000    20.73000000
   H     48.73000000    41.84000000    20.44000000
   O     45.20000000    44.23000000    19.70000000
   H     44.83000000    44.41000000    18.83000000
   H     44.50000000    44.47000000    20.31000000
   O     47.71000000    43.76000000    15.73000000
   H     47.23000000    44.30000000    15.10000000
   H     48.56000000    43.59000000    15.31000000

Ca 1.00



