%chk=loop4.apoCaM-CA-Ng.Init295.run23.water3.chk
%nprocshared=20
%mem=10GB
%nosave
#b3lyp/svp scf=(tight,noincore,xqc) Test 
#IOP(5/87=12) Density=Current Pop=(MK,readradii) iop(6/33=2) iop(6/42=6)

loop4.apoCaM-CA-Ng.Init295.run23.water3 

   -3  1 
   C     99.65000000    34.06000000    52.99000000
   C    100.34000000    35.00000000    52.02000000
   O     99.67000000    35.43000000    51.08000000
   H     98.65600000    33.81700000    52.61500000
   H    100.23400000    33.14500000    53.08800000
   H     99.56200000    34.54200000    53.96400000
   N    101.64000000    35.29000000    52.10000000
   C    102.47000000    36.04000000    51.17000000
   C    102.17000000    37.53000000    51.12000000
   O    102.44000000    38.02000000    50.03000000
   C    102.60000000    35.25000000    49.87000000
   C    103.03000000    33.81000000    50.09000000
   O    104.18000000    33.52000000    50.48000000
   O    102.26000000    32.86000000    49.85000000
   H    102.05000000    34.80000000    52.88000000
   H    103.48000000    36.08000000    51.58000000
   H    103.38000000    35.84000000    49.37000000
   H    101.69000000    35.38000000    49.28000000
   N    101.65000000    38.20000000    52.15000000
   C    101.29000000    39.60000000    52.18000000
   C    102.06000000    40.15000000    53.38000000
   O    101.89000000    39.66000000    54.49000000
   C     99.78000000    39.78000000    52.32000000
   C     99.09000000    39.41000000    51.02000000
   C     99.34000000    41.19000000    52.71000000
   C     97.57000000    39.43000000    51.18000000
   H    101.48000000    37.64000000    52.97000000
   H    101.73000000    40.13000000    51.34000000
   H     99.44000000    39.15000000    53.14000000
   H     99.39000000    38.45000000    50.60000000
   H     99.32000000    40.20000000    50.30000000
   H     99.87000000    41.49000000    53.62000000
   H     99.56000000    41.96000000    51.98000000
   H     98.28000000    41.21000000    52.95000000
   H     97.17000000    38.94000000    50.29000000
   H     97.32000000    38.82000000    52.05000000
   H     97.25000000    40.47000000    51.08000000
   N    103.06000000    41.03000000    53.28000000
   C    103.83000000    41.48000000    52.13000000
   C    104.50000000    40.31000000    51.42000000
   O    104.50000000    40.30000000    50.20000000
   C    104.85000000    42.44000000    52.71000000
   C    104.23000000    43.82000000    52.93000000
   O    103.90000000    44.24000000    54.06000000
   O    104.09000000    44.51000000    51.91000000
   H    103.50000000    41.35000000    54.13000000
   H    103.21000000    42.07000000    51.46000000
   H    105.70000000    42.61000000    52.04000000
   H    105.17000000    42.02000000    53.66000000
   N    105.10000000    39.40000000    52.20000000
   C    105.72000000    38.17000000    51.76000000
   C    107.18000000    38.38000000    51.39000000
   O    107.79000000    39.30000000    51.93000000
   H    105.11000000    39.54000000    53.20000000
   H    105.23000000    37.67000000    50.93000000
   H    105.64000000    37.48000000    52.60000000
   N    107.71000000    37.51000000    50.52000000
   C    109.01000000    37.60000000    49.90000000
   C    108.90000000    37.81000000    48.40000000
   O    109.83000000    38.01000000    47.63000000
   C    109.85000000    36.38000000    50.27000000
   C    109.21000000    35.05000000    49.88000000
   O    109.70000000    34.01000000    50.36000000
   O    108.25000000    35.02000000    49.07000000
   H    107.08000000    36.84000000    50.11000000
   H    109.67000000    38.37000000    50.32000000
   H    110.04000000    36.44000000    51.34000000
   H    110.86000000    36.50000000    49.89000000
   N    107.67000000    37.81000000    47.87000000
   C    107.34000000    38.04000000    46.48000000
   C    107.47000000    36.79000000    45.62000000
   O    107.25000000    36.87000000    44.42000000
   H    106.89000000    37.60000000    48.47000000
   H    107.94000000    38.88000000    46.11000000
   H    106.30000000    38.33000000    46.36000000
   N    107.77000000    35.60000000    46.14000000
   C    107.84000000    34.33000000    45.44000000
   C    106.57000000    34.01000000    44.68000000
   O    106.55000000    33.91000000    43.45000000
   C    109.07000000    34.36000000    44.53000000
   C    110.37000000    34.64000000    45.27000000
   C    111.58000000    34.80000000    44.36000000
   N    112.64000000    35.51000000    44.73000000
   O    111.53000000    34.20000000    43.29000000
   H    107.76000000    35.47000000    47.15000000
   H    107.96000000    33.57000000    46.21000000
   H    109.03000000    35.09000000    43.73000000
   H    109.18000000    33.41000000    44.01000000
   H    110.58000000    33.92000000    46.06000000
   H    110.30000000    35.60000000    45.79000000
   H    112.61000000    35.99000000    45.62000000
   H    113.49000000    35.60000000    44.19000000
   N    105.39000000    34.04000000    45.31000000
   C    104.10000000    33.66000000    44.78000000
   C    104.15000000    32.14000000    44.78000000
   O    104.67000000    31.53000000    45.71000000
   C    103.08000000    34.20000000    45.77000000
   C    102.89000000    35.71000000    45.76000000
   C    101.66000000    33.67000000    45.56000000
   H    105.40000000    34.17000000    46.31000000
   H    104.04000000    34.11000000    43.79000000
   H    103.44000000    33.88000000    46.74000000
   H    102.27000000    36.08000000    46.57000000
   H    103.88000000    36.15000000    45.82000000
   H    102.50000000    36.01000000    44.78000000
   H    101.67000000    32.60000000    45.76000000
   H    101.08000000    34.15000000    46.36000000
   H    101.26000000    33.88000000    44.57000000
   N    103.58000000    31.49000000    43.75000000
   C    103.31000000    30.07000000    43.79000000
   C    101.93000000    29.77000000    44.34000000
   O    101.07000000    30.65000000    44.32000000
   C    103.66000000    29.49000000    42.42000000
   C    103.77000000    27.97000000    42.33000000
   N    104.43000000    27.56000000    41.24000000
   O    103.44000000    27.16000000    43.19000000
   H    103.17000000    32.09000000    43.05000000
   H    104.07000000    29.66000000    44.46000000
   H    104.58000000    29.90000000    42.01000000
   H    102.86000000    29.79000000    41.74000000
   H    104.79000000    28.18000000    40.53000000
   H    104.59000000    26.56000000    41.14000000
   N    101.63000000    28.58000000    44.87000000
   C    100.36000000    28.18000000    45.44000000
   C    100.75000000    26.93000000    46.22000000
   O    101.47000000    26.09000000    45.69000000
   C     99.40000000    27.86000000    44.30000000
   C     98.02000000    27.42000000    44.72000000
   C     96.98000000    28.35000000    44.62000000
   C     97.76000000    26.19000000    45.34000000
   C     95.67000000    28.05000000    45.01000000
   C     96.44000000    25.93000000    45.74000000
   C     95.35000000    26.82000000    45.63000000
   O     94.05000000    26.52000000    45.91000000
   H    102.40000000    27.92000000    44.85000000
   H     99.89000000    28.95000000    46.06000000
   H     99.90000000    27.10000000    43.69000000
   H     99.29000000    28.82000000    43.78000000
   H     97.08000000    29.41000000    44.42000000
   H     98.47000000    25.38000000    45.40000000
   H     94.95000000    28.85000000    45.04000000
   H     96.28000000    24.95000000    46.15000000
   H     94.01000000    25.76000000    46.49000000
   N    100.25000000    26.81000000    47.45000000
   C    100.58000000    25.72000000    48.33000000
   C     99.39000000    24.90000000    48.79000000
   O     99.27000000    23.70000000    48.52000000
   C    101.50000000    26.19000000    49.46000000
   C    102.88000000    26.69000000    49.05000000
   C    103.21000000    28.06000000    49.61000000
   O    104.24000000    28.30000000    50.27000000
   O    102.42000000    29.02000000    49.45000000
   H     99.74000000    27.56000000    47.91000000
   H    101.08000000    24.94000000    47.75000000
   H    101.59000000    25.34000000    50.14000000
   H    101.06000000    26.99000000    50.06000000
   H    102.87000000    26.88000000    47.98000000
   H    103.62000000    25.90000000    49.12000000
   N     98.33000000    25.44000000    49.40000000
   C     98.16000000    26.79000000    49.88000000
   C     96.89000000    27.54000000    49.52000000
   O     95.88000000    26.94000000    49.16000000
   C     98.29000000    26.75000000    51.40000000
   C     97.16000000    26.10000000    52.19000000
   C     97.40000000    24.64000000    52.55000000
   O     98.42000000    24.36000000    53.20000000
   O     96.66000000    23.73000000    52.13000000
   H     97.53000000    24.85000000    49.61000000
   H     98.95000000    27.45000000    49.49000000
   H     98.19000000    27.79000000    51.70000000
   H     99.28000000    26.38000000    51.67000000
   H     96.20000000    26.24000000    51.69000000
   H     97.06000000    26.70000000    53.09000000
   N     96.79000000    28.87000000    49.53000000
   C     95.67000000    29.74000000    49.23000000
   H     94.83600000    29.49900000    49.89000000
   H     95.96500000    30.77800000    49.38300000
   H     95.36500000    29.59700000    48.19300000
   H     97.70000000    29.29000000    49.66000000
  Ca    103.55900000    30.86000000    50.84000000
   O    104.75900000    31.97000000    53.12000000
   H    105.10900000    31.56000000    53.91000000
   H    104.79900000    32.91000000    53.30000000
   O    104.85900000    31.22000000    48.64000000
   H    105.47900000    31.94000000    48.47000000
   H    104.61900000    30.91000000    47.77000000
   O    106.19900000    30.10000000    51.09000000
   H    105.91900000    29.26000000    50.72000000
   H    106.88900000    30.40000000    50.51000000

Ca 1.00



