%chk=loop3.apoCaM-CA-Ng.Init295.run62.water3.chk
%nprocshared=20
%mem=10GB
%nosave
#b3lyp/svp scf=(tight,noincore,xqc) Test 
#IOP(5/87=12) Density=Current Pop=(MK,readradii) iop(6/33=2) iop(6/42=6)

loop3.apoCaM-CA-Ng.Init295.run62.water3 

   0  1 
   C    100.17000000    68.82000000    34.93000000
   C    100.75000000    67.47000000    34.52000000
   O    100.76000000    66.55000000    35.33000000
   H     99.18900000    68.67100000    35.38000000
   H    100.83200000    69.29600000    35.65300000
   H    100.07300000    69.45700000    34.05100000
   N    101.44000000    67.33000000    33.38000000
   C    102.32000000    66.22000000    33.10000000
   C    103.48000000    66.10000000    34.08000000
   O    104.28000000    67.02000000    34.23000000
   C    102.82000000    66.18000000    31.66000000
   C    103.51000000    64.85000000    31.38000000
   O    103.11000000    64.08000000    30.47000000
   O    104.54000000    64.52000000    32.00000000
   H    101.54000000    68.12000000    32.76000000
   H    101.72000000    65.33000000    33.30000000
   H    103.52000000    67.00000000    31.55000000
   H    101.98000000    66.35000000    30.98000000
   N    103.57000000    64.94000000    34.74000000
   C    104.51000000    64.63000000    35.80000000
   C    106.00000000    64.50000000    35.49000000
   O    106.82000000    64.43000000    36.40000000
   C    104.00000000    63.39000000    36.54000000
   C    104.42000000    62.12000000    35.81000000
   C    103.75000000    60.84000000    36.33000000
   C    102.24000000    60.75000000    36.13000000
   N    101.52000000    59.71000000    36.88000000
   H    102.96000000    64.20000000    34.43000000
   H    104.60000000    65.46000000    36.50000000
   H    102.96000000    63.60000000    36.79000000
   H    104.57000000    63.50000000    37.46000000
   H    105.50000000    61.98000000    35.97000000
   H    104.17000000    62.22000000    34.76000000
   H    103.88000000    60.81000000    37.41000000
   H    104.32000000    59.97000000    36.00000000
   H    102.03000000    60.54000000    35.08000000
   H    101.81000000    61.71000000    36.40000000
   H    100.55000000    59.65000000    36.62000000
   H    101.87000000    58.80000000    36.58000000
   H    101.55000000    59.94000000    37.86000000
   N    106.46000000    64.63000000    34.24000000
   C    107.82000000    64.86000000    33.81000000
   C    107.98000000    66.08000000    32.91000000
   O    109.12000000    66.44000000    32.64000000
   C    108.50000000    63.64000000    33.20000000
   C    107.53000000    63.03000000    32.20000000
   O    107.51000000    63.55000000    31.06000000
   O    106.73000000    62.11000000    32.48000000
   H    105.71000000    64.66000000    33.56000000
   H    108.42000000    65.08000000    34.70000000
   H    108.64000000    62.97000000    34.04000000
   H    109.40000000    63.87000000    32.64000000
   N    106.92000000    66.75000000    32.45000000
   C    106.91000000    67.82000000    31.48000000
   C    107.13000000    67.41000000    30.04000000
   O    107.05000000    68.33000000    29.23000000
   H    106.05000000    66.50000000    32.89000000
   H    107.61000000    68.56000000    31.86000000
   H    105.87000000    68.14000000    31.55000000
   N    107.28000000    66.14000000    29.66000000
   C    107.23000000    65.78000000    28.26000000
   C    105.85000000    65.18000000    28.03000000
   O    105.44000000    64.29000000    28.77000000
   C    108.35000000    64.78000000    28.04000000
   C    108.23000000    64.24000000    26.62000000
   N    109.00000000    64.74000000    25.66000000
   O    107.43000000    63.34000000    26.37000000
   H    107.20000000    65.39000000    30.34000000
   H    107.34000000    66.69000000    27.67000000
   H    108.12000000    63.90000000    28.63000000
   H    109.35000000    65.20000000    28.17000000
   H    109.45000000    65.65000000    25.68000000
   H    109.05000000    64.22000000    24.80000000
   N    105.06000000    65.72000000    27.10000000
   C    103.63000000    65.57000000    26.91000000
   C    103.05000000    64.18000000    26.75000000
   O    101.83000000    64.06000000    26.90000000
   H    105.51000000    66.47000000    26.60000000
   H    103.21000000    66.25000000    26.16000000
   H    103.27000000    65.99000000    27.86000000
   N    103.84000000    63.12000000    26.57000000
   C    103.30000000    61.82000000    26.22000000
   C    103.06000000    60.99000000    27.47000000
   O    103.64000000    61.32000000    28.50000000
   C    104.16000000    61.18000000    25.14000000
   C    104.20000000    61.85000000    23.79000000
   C    103.03000000    62.10000000    23.07000000
   C    105.44000000    62.22000000    23.26000000
   C    103.10000000    62.75000000    21.83000000
   C    105.55000000    62.68000000    21.94000000
   C    104.36000000    62.94000000    21.23000000
   O    104.37000000    63.32000000    19.92000000
   H    104.83000000    63.20000000    26.75000000
   H    102.33000000    61.95000000    25.74000000
   H    103.67000000    60.22000000    24.97000000
   H    105.17000000    61.07000000    25.54000000
   H    102.09000000    61.77000000    23.50000000
   H    106.38000000    61.99000000    23.76000000
   H    102.19000000    62.99000000    21.31000000
   H    106.53000000    62.79000000    21.50000000
   H    105.24000000    63.49000000    19.55000000
   N    102.28000000    59.91000000    27.50000000
   C    102.23000000    58.82000000    28.45000000
   C    103.52000000    58.00000000    28.40000000
   O    104.62000000    58.55000000    28.49000000
   C    101.75000000    59.29000000    29.82000000
   C    101.62000000    58.10000000    30.76000000
   C    100.43000000    60.04000000    29.62000000
   C    101.22000000    58.67000000    32.12000000
   H    101.88000000    59.73000000    26.59000000
   H    101.43000000    58.17000000    28.11000000
   H    102.53000000    59.89000000    30.29000000
   H    102.53000000    57.52000000    30.67000000
   H    100.79000000    57.52000000    30.34000000
   H     99.69000000    59.47000000    29.07000000
   H    100.03000000    60.37000000    30.58000000
   H    100.69000000    60.98000000    29.12000000
   H    101.63000000    59.64000000    32.38000000
   H    100.13000000    58.73000000    32.14000000
   H    101.55000000    58.01000000    32.93000000
   N    103.39000000    56.69000000    28.19000000
   C    104.54000000    55.82000000    28.30000000
   C    104.36000000    54.44000000    27.69000000
   O    105.38000000    53.76000000    27.65000000
   C    104.94000000    55.61000000    29.76000000
   O    103.82000000    55.34000000    30.57000000
   H    102.44000000    56.36000000    28.22000000
   H    105.36000000    56.29000000    27.76000000
   H    105.37000000    56.50000000    30.22000000
   H    105.77000000    54.92000000    29.88000000
   H    104.03000000    55.40000000    31.51000000
   N    103.11000000    54.10000000    27.39000000
   C    102.69000000    52.73000000    27.22000000
   C    103.40000000    51.65000000    28.02000000
   O    104.00000000    50.72000000    27.48000000
   C    102.64000000    52.40000000    25.73000000
   H    102.39000000    54.80000000    27.54000000
   H    101.67000000    52.68000000    27.60000000
   H    101.86000000    53.02000000    25.27000000
   H    103.62000000    52.61000000    25.30000000
   H    102.38000000    51.38000000    25.44000000
   N    103.37000000    51.59000000    29.36000000
   C    102.46000000    52.36000000    30.18000000
   C    101.08000000    51.76000000    30.37000000
   O    101.03000000    50.53000000    30.41000000
   C    103.16000000    52.53000000    31.53000000
   H    103.95000000    50.84000000    29.70000000
   H    102.37000000    53.37000000    29.79000000
   H    102.53000000    53.09000000    32.21000000
   H    103.36000000    51.55000000    31.97000000
   H    104.13000000    53.03000000    31.44000000
   N    100.02000000    52.54000000    30.62000000
   C     99.82000000    53.96000000    30.82000000
   C     98.71000000    54.52000000    29.94000000
   O     98.86000000    55.67000000    29.54000000
   C     99.57000000    54.18000000    32.31000000
   C     99.72000000    55.60000000    32.85000000
   C     99.45000000    55.77000000    34.33000000
   O     98.28000000    55.73000000    34.77000000
   O    100.45000000    55.84000000    35.08000000
   H     99.16000000    52.02000000    30.72000000
   H    100.70000000    54.55000000    30.56000000
   H    100.19000000    53.50000000    32.90000000
   H     98.53000000    53.98000000    32.56000000
   H     99.17000000    56.31000000    32.22000000
   H    100.70000000    56.01000000    32.59000000
   N     97.68000000    53.77000000    29.56000000
   C     96.59000000    54.17000000    28.69000000
   H     95.76400000    54.54700000    29.29300000
   H     96.93300000    54.95300000    28.01400000
   H     96.25300000    53.31100000    28.11100000
   H     97.74000000    52.80000000    29.85000000
  Ca    105.03400000    62.29000000    30.43000000
   O    106.73400000    61.47000000    28.36000000
   H    107.33400000    61.98000000    27.81000000
   H    106.80400000    60.58000000    28.03000000
   O    103.58400000    61.17000000    32.38000000
   H    102.76400000    61.49000000    32.76000000
   H    103.70400000    60.30000000    32.77000000
   O    105.86400000    59.69000000    30.45000000
   H    106.35400000    59.09000000    31.00000000
   H    105.79400000    59.25000000    29.61000000

Ca 1.00



