%chk=loop1.apoCaM-CA-Ng.Init295.run93.water5.chk
%nprocshared=20
%mem=10GB
%nosave
#b3lyp/svp scf=(tight,noincore,xqc) Test 
#IOP(5/87=12) Density=Current Pop=(MK,readradii) iop(6/33=2) iop(6/42=6)

loop1.apoCaM-CA-Ng.Init295.run93.water5 

   0  1 
   C    105.11000000   105.57000000    81.60000000
   C    104.17000000   106.51000000    80.85000000
   O    102.99000000   106.59000000    81.17000000
   H    106.00900000   106.11300000    81.89200000
   H    104.61000000   105.19000000    82.49100000
   H    105.38400000   104.73700000    80.95300000
   N    104.71000000   107.24000000    79.87000000
   C    104.04000000   108.10000000    78.92000000
   C    104.30000000   107.87000000    77.43000000
   O    105.33000000   107.33000000    77.02000000
   C    104.23000000   109.55000000    79.33000000
   C    103.15000000   110.50000000    78.83000000
   O    103.24000000   111.74000000    78.99000000
   O    102.09000000   110.05000000    78.34000000
   H    105.71000000   107.18000000    79.74000000
   H    102.99000000   107.81000000    78.95000000
   H    105.19000000   109.91000000    78.97000000
   H    104.20000000   109.56000000    80.42000000
   N    103.35000000   108.22000000    76.57000000
   C    103.39000000   108.10000000    75.12000000
   C    104.45000000   108.97000000    74.47000000
   O    104.48000000   108.87000000    73.24000000
   C    102.00000000   108.30000000    74.50000000
   C    101.16000000   107.02000000    74.47000000
   C     99.87000000   107.24000000    73.69000000
   C     99.00000000   106.00000000    73.61000000
   N     98.89000000   105.27000000    74.88000000
   H    102.63000000   108.84000000    76.91000000
   H    103.77000000   107.11000000    74.84000000
   H    102.12000000   108.50000000    73.44000000
   H    101.35000000   109.04000000    74.97000000
   H    101.00000000   106.75000000    75.52000000
   H    101.83000000   106.32000000    73.97000000
   H    100.06000000   107.46000000    72.63000000
   H     99.30000000   108.07000000    74.10000000
   H     99.51000000   105.49000000    72.79000000
   H     98.01000000   106.35000000    73.31000000
   H     99.72000000   104.69000000    74.91000000
   H     98.60000000   105.91000000    75.61000000
   H     98.04000000   104.73000000    74.78000000
   N    105.32000000   109.69000000    75.17000000
   C    106.42000000   110.50000000    74.67000000
   C    107.44000000   110.57000000    75.80000000
   O    107.10000000   110.62000000    76.98000000
   C    105.96000000   111.89000000    74.24000000
   C    107.02000000   112.79000000    73.62000000
   O    107.93000000   113.29000000    74.32000000
   O    106.99000000   113.12000000    72.41000000
   H    105.30000000   109.69000000    76.18000000
   H    106.85000000   109.84000000    73.92000000
   H    105.46000000   112.37000000    75.09000000
   H    105.21000000   111.76000000    73.47000000
   N    108.73000000   110.65000000    75.49000000
   C    109.67000000   111.00000000    76.53000000
   C    110.97000000   111.54000000    75.95000000
   O    111.65000000   110.76000000    75.28000000
   H    109.11000000   110.47000000    74.57000000
   H    109.98000000   110.11000000    77.07000000
   H    109.21000000   111.72000000    77.21000000
   N    111.27000000   112.82000000    76.17000000
   C    112.52000000   113.43000000    75.77000000
   C    113.55000000   113.22000000    76.87000000
   O    113.23000000   113.36000000    78.04000000
   C    112.24000000   114.86000000    75.34000000
   C    111.11000000   115.04000000    74.33000000
   O    111.19000000   114.48000000    73.22000000
   O    110.08000000   115.72000000    74.56000000
   H    110.57000000   113.34000000    76.66000000
   H    112.84000000   112.94000000    74.84000000
   H    113.14000000   115.33000000    74.94000000
   H    111.92000000   115.44000000    76.20000000
   N    114.77000000   112.81000000    76.49000000
   C    115.85000000   112.68000000    77.44000000
   C    115.81000000   111.49000000    78.39000000
   O    116.81000000   111.26000000    79.07000000
   H    115.01000000   112.65000000    75.52000000
   H    116.12000000   113.64000000    77.87000000
   H    116.69000000   112.51000000    76.77000000
   N    114.77000000   110.66000000    78.48000000
   C    114.72000000   109.51000000    79.36000000
   C    114.68000000   109.94000000    80.82000000
   O    114.25000000   111.07000000    81.06000000
   C    113.48000000   108.71000000    78.94000000
   C    112.13000000   109.42000000    79.02000000
   O    113.62000000   108.31000000    77.60000000
   H    113.86000000   110.93000000    78.13000000
   H    115.61000000   108.91000000    79.17000000
   H    113.41000000   107.83000000    79.57000000
   H    112.74000000   107.99000000    77.38000000
   H    112.05000000   110.32000000    78.42000000
   H    111.32000000   108.70000000    78.92000000
   H    112.02000000   109.79000000    80.04000000
   N    114.98000000   109.04000000    81.76000000
   C    114.80000000   109.35000000    83.16000000
   C    116.05000000   109.20000000    84.01000000
   O    116.04000000   109.63000000    85.16000000
   C    113.57000000   108.63000000    83.71000000
   C    113.88000000   107.14000000    83.74000000
   C    112.27000000   108.99000000    83.00000000
   C    112.74000000   106.27000000    84.26000000
   H    115.26000000   108.09000000    81.58000000
   H    114.58000000   110.42000000    83.24000000
   H    113.32000000   108.88000000    84.75000000
   H    114.77000000   106.96000000    84.34000000
   H    113.97000000   106.75000000    82.72000000
   H    112.36000000   108.81000000    81.93000000
   H    111.46000000   108.30000000    83.25000000
   H    111.99000000   110.00000000    83.31000000
   H    112.29000000   106.79000000    85.10000000
   H    112.00000000   106.15000000    83.46000000
   H    113.08000000   105.29000000    84.60000000
   N    117.20000000   108.90000000    83.40000000
   C    118.52000000   109.26000000    83.88000000
   C    119.68000000   108.36000000    83.47000000
   O    119.75000000   107.91000000    82.33000000
   C    118.73000000   110.74000000    83.60000000
   C    119.87000000   111.34000000    84.41000000
   O    119.00000000   110.97000000    82.23000000
   H    117.22000000   108.68000000    82.41000000
   H    118.51000000   109.14000000    84.97000000
   H    117.87000000   111.34000000    83.90000000
   H    119.80000000   111.50000000    82.20000000
   H    119.86000000   110.89000000    85.40000000
   H    120.85000000   111.21000000    83.95000000
   H    119.57000000   112.38000000    84.54000000
   N    120.61000000   108.13000000    84.39000000
   C    121.91000000   107.48000000    84.27000000
   C    121.88000000   106.05000000    84.79000000
   O    122.76000000   105.27000000    84.42000000
   C    123.01000000   108.31000000    84.92000000
   C    123.08000000   108.79000000    86.37000000
   O    123.02000000   109.55000000    84.25000000
   H    120.39000000   108.32000000    85.36000000
   H    122.19000000   107.40000000    83.22000000
   H    124.01000000   107.92000000    84.71000000
   H    123.94000000   109.70000000    84.01000000
   H    122.18000000   109.39000000    86.48000000
   H    122.98000000   107.93000000    87.02000000
   H    123.97000000   109.39000000    86.57000000
   N    120.90000000   105.63000000    85.59000000
   C    120.66000000   104.30000000    86.13000000
   C    119.64000000   103.52000000    85.32000000
   O    118.76000000   104.16000000    84.76000000
   C    120.21000000   104.54000000    87.56000000
   C    121.37000000   105.01000000    88.43000000
   C    121.13000000   105.05000000    89.93000000
   C    120.80000000   103.71000000    90.57000000
   N    121.88000000   102.71000000    90.47000000
   H    120.10000000   106.23000000    85.66000000
   H    121.59000000   103.74000000    86.02000000
   H    119.75000000   103.61000000    87.91000000
   H    119.44000000   105.31000000    87.66000000
   H    121.68000000   106.01000000    88.10000000
   H    122.32000000   104.49000000    88.30000000
   H    120.31000000   105.70000000    90.24000000
   H    122.06000000   105.33000000    90.42000000
   H    119.90000000   103.25000000    90.15000000
   H    120.63000000   103.89000000    91.63000000
   H    121.60000000   101.91000000    91.02000000
   H    121.98000000   102.38000000    89.52000000
   H    122.77000000   103.02000000    90.82000000
   N    119.76000000   102.19000000    85.25000000
   C    118.84000000   101.24000000    84.67000000
   C    118.76000000   101.24000000    83.15000000
   O    119.70000000   101.70000000    82.50000000
   C    119.24000000    99.83000000    85.08000000
   C    119.07000000    99.50000000    86.56000000
   C    120.21000000    99.94000000    87.47000000
   O    119.92000000    99.93000000    88.69000000
   O    121.23000000   100.50000000    87.00000000
   H    120.56000000   101.75000000    85.70000000
   H    117.83000000   101.48000000    85.00000000
   H    120.31000000    99.72000000    84.88000000
   H    118.69000000    99.05000000    84.57000000
   H    118.95000000    98.42000000    86.60000000
   H    118.08000000    99.85000000    86.87000000
   N    117.69000000   100.89000000    82.43000000
   C    116.41000000   100.48000000    82.97000000
   H    115.65300000   100.53300000    82.18800000
   H    116.48100000    99.45600000    83.33800000
   H    116.13200000   101.14300000    83.79000000
   H    117.77000000   100.93000000    81.42000000
  Ca    108.68800000   115.13800000    72.47000000
   O    109.49800000   113.37800000    70.45000000
   H    110.35800000   113.45800000    70.03000000
   H    108.93800000   112.98800000    69.78000000
   O    110.39800000   116.38800000    70.91000000
   H    110.88800000   116.31800000    70.09000000
   H    110.53800000   117.28800000    71.20000000
   O    106.62800000   115.88800000    74.14000000
   H    106.26800000   116.77800000    74.10000000
   H    106.17800000   115.48800000    74.89000000
   O    106.80800000   115.57800000    70.60000000
   H    106.34800000   114.77800000    70.36000000
   H    106.21800000   116.28800000    70.34000000
   O    108.25800000   117.73800000    72.45000000
   H    108.03800000   118.41800000    73.08000000
   H    107.59800000   117.82800000    71.76000000

Ca 1.00



