%chk=loop2.apoCaM-CA-Ng.Init293.run26.water7.chk
%nprocshared=20
%mem=10GB
%nosave
#b3lyp/svp scf=(tight,noincore,xqc) Test 
#IOP(5/87=12) Density=Current Pop=(MK,readradii) iop(6/33=2) iop(6/42=6)

loop2.apoCaM-CA-Ng.Init293.run26.water7 

   -2  1 
   C     51.74000000    -7.10000000    37.36000000
   C     51.76000000    -7.75000000    38.73000000
   O     51.71000000    -7.07000000    39.76000000
   H     51.98400000    -6.04200000    37.45700000
   H     52.47400000    -7.58400000    36.71700000
   H     50.74700000    -7.20500000    36.92200000
   N     51.91000000    -9.07000000    38.81000000
   C     51.97000000    -9.99000000    39.93000000
   C     53.16000000    -9.63000000    40.81000000
   O     52.98000000    -9.46000000    42.01000000
   C     52.12000000   -11.42000000    39.43000000
   C     52.30000000   -12.43000000    40.56000000
   O     53.21000000   -13.28000000    40.59000000
   O     51.48000000   -12.28000000    41.50000000
   H     52.00000000    -9.55000000    37.92000000
   H     51.01000000    -9.92000000    40.44000000
   H     52.99000000   -11.46000000    38.78000000
   H     51.19000000   -11.70000000    38.94000000
   N     54.34000000    -9.48000000    40.20000000
   C     55.58000000    -9.30000000    40.94000000
   C     55.50000000    -8.28000000    42.06000000
   O     56.12000000    -8.45000000    43.11000000
   C     56.04000000   -10.70000000    41.36000000
   H     54.41000000    -9.87000000    39.27000000
   H     56.33000000    -8.96000000    40.22000000
   H     56.19000000   -11.37000000    40.52000000
   H     56.95000000   -10.64000000    41.95000000
   H     55.34000000   -11.15000000    42.07000000
   N     54.82000000    -7.16000000    41.82000000
   C     54.81000000    -5.95000000    42.61000000
   C     54.19000000    -5.95000000    44.00000000
   O     54.44000000    -5.08000000    44.83000000
   C     56.18000000    -5.27000000    42.51000000
   C     56.67000000    -5.14000000    41.08000000
   O     57.91000000    -5.24000000    40.93000000
   O     55.93000000    -4.73000000    40.16000000
   H     54.42000000    -7.08000000    40.89000000
   H     54.21000000    -5.27000000    42.01000000
   H     56.97000000    -5.75000000    43.09000000
   H     56.07000000    -4.26000000    42.91000000
   N     53.32000000    -6.93000000    44.28000000
   C     52.71000000    -7.12000000    45.58000000
   C     51.82000000    -5.93000000    45.89000000
   O     51.27000000    -5.26000000    45.02000000
   H     53.18000000    -7.63000000    43.57000000
   H     53.55000000    -7.21000000    46.27000000
   H     52.09000000    -8.02000000    45.67000000
   N     51.59000000    -5.71000000    47.19000000
   C     50.96000000    -4.57000000    47.83000000
   C     49.56000000    -4.22000000    47.33000000
   O     49.17000000    -3.07000000    47.20000000
   C     51.98000000    -3.45000000    47.75000000
   C     53.23000000    -3.61000000    48.61000000
   N     54.42000000    -3.67000000    48.01000000
   O     53.18000000    -3.53000000    49.83000000
   H     52.02000000    -6.36000000    47.83000000
   H     50.84000000    -4.81000000    48.88000000
   H     51.55000000    -2.50000000    48.07000000
   H     52.27000000    -3.36000000    46.70000000
   H     54.38000000    -3.52000000    47.01000000
   H     55.29000000    -3.56000000    48.50000000
   N     48.77000000    -5.27000000    47.09000000
   C     47.43000000    -5.26000000    46.56000000
   C     47.27000000    -5.67000000    45.10000000
   O     46.13000000    -5.61000000    44.65000000
   H     49.22000000    -6.18000000    47.10000000
   H     47.07000000    -4.22000000    46.59000000
   H     46.71000000    -5.80000000    47.17000000
   N     48.36000000    -5.93000000    44.37000000
   C     48.31000000    -6.00000000    42.93000000
   C     48.23000000    -4.63000000    42.27000000
   O     48.86000000    -3.69000000    42.75000000
   C     49.59000000    -6.66000000    42.44000000
   C     50.00000000    -8.01000000    43.03000000
   O     49.25000000    -6.97000000    41.11000000
   H     49.26000000    -5.88000000    44.83000000
   H     47.46000000    -6.58000000    42.55000000
   H     50.50000000    -6.07000000    42.51000000
   H     49.98000000    -6.90000000    40.49000000
   H     50.42000000    -7.90000000    44.04000000
   H     49.12000000    -8.64000000    43.14000000
   H     50.81000000    -8.43000000    42.44000000
   N     47.56000000    -4.48000000    41.13000000
   C     47.64000000    -3.32000000    40.26000000
   C     49.05000000    -3.07000000    39.75000000
   O     49.82000000    -3.98000000    39.46000000
   C     46.60000000    -3.36000000    39.14000000
   C     45.17000000    -3.52000000    39.63000000
   C     46.66000000    -2.25000000    38.09000000
   C     44.62000000    -2.64000000    40.75000000
   H     46.90000000    -5.19000000    40.84000000
   H     47.36000000    -2.47000000    40.87000000
   H     46.84000000    -4.19000000    38.47000000
   H     45.12000000    -4.51000000    40.09000000
   H     44.43000000    -3.57000000    38.83000000
   H     47.67000000    -1.85000000    37.97000000
   H     46.29000000    -2.53000000    37.11000000
   H     46.14000000    -1.37000000    38.49000000
   H     45.16000000    -2.77000000    41.69000000
   H     44.73000000    -1.61000000    40.39000000
   H     43.61000000    -2.91000000    41.05000000
   N     49.42000000    -1.79000000    39.71000000
   C     50.80000000    -1.38000000    39.55000000
   C     51.23000000    -0.43000000    40.66000000
   O     52.12000000     0.40000000    40.50000000
   C     51.02000000    -0.86000000    38.13000000
   C     52.41000000    -0.52000000    37.62000000
   O     53.40000000    -1.18000000    38.02000000
   O     52.57000000     0.38000000    36.76000000
   H     48.87000000    -1.07000000    40.16000000
   H     51.40000000    -2.26000000    39.76000000
   H     50.41000000     0.02000000    37.94000000
   H     50.74000000    -1.65000000    37.44000000
   N     50.62000000    -0.59000000    41.84000000
   C     51.01000000     0.18000000    43.00000000
   C     50.61000000     1.65000000    42.89000000
   O     51.50000000     2.45000000    43.16000000
   C     50.50000000    -0.47000000    44.28000000
   C     50.96000000     0.04000000    45.63000000
   C     50.04000000     0.53000000    46.57000000
   C     52.33000000     0.08000000    45.89000000
   C     50.45000000     0.81000000    47.88000000
   C     52.74000000     0.58000000    47.14000000
   C     51.82000000     0.91000000    48.14000000
   H     50.05000000    -1.42000000    41.91000000
   H     52.10000000     0.18000000    43.04000000
   H     50.67000000    -1.54000000    44.22000000
   H     49.42000000    -0.34000000    44.28000000
   H     48.97000000     0.53000000    46.45000000
   H     53.08000000    -0.08000000    45.13000000
   H     49.73000000     0.95000000    48.68000000
   H     53.79000000     0.69000000    47.33000000
   H     52.17000000     1.27000000    49.10000000
   N     49.39000000     2.05000000    42.52000000
   C     48.31000000     1.27000000    41.95000000
   C     47.97000000     1.56000000    40.50000000
   O     47.34000000     0.74000000    39.84000000
   C     47.14000000     1.69000000    42.85000000
   C     47.38000000     3.18000000    43.04000000
   C     48.90000000     3.34000000    42.96000000
   H     48.44000000     0.20000000    42.09000000
   H     46.15000000     1.56000000    42.41000000
   H     47.17000000     1.22000000    43.84000000
   H     46.93000000     3.78000000    42.24000000
   H     46.97000000     3.47000000    44.00000000
   H     49.26000000     4.14000000    42.32000000
   H     49.20000000     3.61000000    43.97000000
   N     48.41000000     2.69000000    39.94000000
   C     47.99000000     3.29000000    38.69000000
   C     48.63000000     2.65000000    37.47000000
   O     49.85000000     2.51000000    37.44000000
   C     48.31000000     4.79000000    38.70000000
   C     47.50000000     5.47000000    39.80000000
   C     47.57000000     6.98000000    39.68000000
   O     46.98000000     7.55000000    38.73000000
   O     48.16000000     7.69000000    40.53000000
   H     49.21000000     3.11000000    40.39000000
   H     46.92000000     3.22000000    38.55000000
   H     48.07000000     5.12000000    37.69000000
   H     49.36000000     4.90000000    38.94000000
   H     47.87000000     5.10000000    40.76000000
   H     46.46000000     5.16000000    39.73000000
   N     47.81000000     2.15000000    36.54000000
   C     48.16000000     1.33000000    35.40000000
   H     49.18200000     0.96900000    35.51300000
   H     47.48000000     0.48000000    35.34000000
   H     48.08300000     1.92200000    34.48800000
   H     46.82000000     2.35000000    36.64000000
  Ca     55.39000000    -2.47300000    38.93000000
   O     54.96000000    -0.08300000    40.34000000
   H     54.07000000     0.00700000    39.99000000
   H     54.89000000     0.21700000    41.25000000
   O     57.08000000    -0.85300000    37.57000000
   H     57.99000000    -0.78300000    37.86000000
   H     57.08000000    -0.49300000    36.68000000
   O     53.70000000    -2.67300000    41.20000000
   H     53.16000000    -3.27300000    41.70000000
   H     53.85000000    -1.93300000    41.79000000
   O     57.25000000    -1.85300000    40.94000000
   H     56.62000000    -1.57300000    41.60000000
   H     58.10000000    -1.61300000    41.29000000
   O     57.94000000    -4.05300000    38.37000000
   H     58.00000000    -4.32300000    39.29000000
   H     58.68000000    -4.48300000    37.94000000
   O     53.31000000    -4.18300000    38.80000000
   H     52.42000000    -3.83300000    38.69000000
   H     53.20000000    -4.95300000    39.36000000
   O     55.58000000    -3.60300000    36.38000000
   H     56.42000000    -3.44300000    35.95000000
   H     55.29000000    -4.45300000    36.05000000

Ca 1.00



