%chk=loop2.apoCaM-CA-Ng.Init295.run23.water3.chk
%nprocshared=20
%mem=10GB
%nosave
#b3lyp/svp scf=(tight,noincore,xqc) Test 
#IOP(5/87=12) Density=Current Pop=(MK,readradii) iop(6/33=2) iop(6/42=6)

loop2.apoCaM-CA-Ng.Init295.run23.water3 

   -2  1 
   C     69.68000000    42.45000000    42.82000000
   C     68.96000000    43.35000000    41.83000000
   O     67.76000000    43.56000000    42.01000000
   H     70.59500000    42.93900000    43.15600000
   H     69.03400000    42.26200000    43.67700000
   H     69.92900000    41.50500000    42.33800000
   N     69.66000000    43.84000000    40.80000000
   C     69.32000000    44.66000000    39.65000000
   C     69.06000000    46.08000000    40.13000000
   O     69.58000000    47.08000000    39.63000000
   C     70.51000000    44.58000000    38.71000000
   C     70.29000000    45.07000000    37.29000000
   O     69.14000000    44.87000000    36.82000000
   O     71.21000000    45.65000000    36.69000000
   H     70.61000000    43.51000000    40.73000000
   H     68.38000000    44.38000000    39.17000000
   H     70.75000000    43.51000000    38.74000000
   H     71.38000000    45.14000000    39.05000000
   N     68.21000000    46.22000000    41.14000000
   C     67.32000000    47.31000000    41.51000000
   C     67.19000000    47.52000000    43.01000000
   O     67.46000000    46.64000000    43.82000000
   C     65.98000000    47.03000000    40.85000000
   H     68.05000000    45.35000000    41.63000000
   H     67.73000000    48.21000000    41.06000000
   H     65.44000000    46.14000000    41.15000000
   H     65.28000000    47.85000000    41.02000000
   H     66.04000000    47.03000000    39.76000000
   N     66.93000000    48.76000000    43.45000000
   C     66.46000000    49.96000000    42.79000000
   C     67.64000000    50.67000000    42.15000000
   O     68.84000000    50.42000000    42.28000000
   C     65.87000000    50.82000000    43.90000000
   C     64.63000000    50.20000000    44.53000000
   O     63.81000000    49.69000000    43.75000000
   O     64.45000000    50.27000000    45.77000000
   H     66.91000000    48.83000000    44.46000000
   H     65.76000000    49.73000000    41.98000000
   H     65.59000000    51.77000000    43.45000000
   H     66.66000000    51.02000000    44.63000000
   N     67.28000000    51.64000000    41.30000000
   C     68.15000000    52.18000000    40.28000000
   C     68.56000000    51.04000000    39.37000000
   O     67.64000000    50.42000000    38.82000000
   H     66.29000000    51.73000000    41.12000000
   H     69.01000000    52.68000000    40.71000000
   H     67.69000000    53.02000000    39.75000000
   N     69.80000000    50.66000000    39.04000000
   C     71.01000000    51.38000000    39.34000000
   C     71.87000000    50.77000000    40.44000000
   O     73.04000000    51.14000000    40.57000000
   C     71.84000000    51.42000000    38.06000000
   C     71.16000000    52.10000000    36.88000000
   N     71.56000000    51.87000000    35.63000000
   O     70.17000000    52.82000000    37.01000000
   H     69.95000000    49.91000000    38.38000000
   H     70.89000000    52.43000000    39.64000000
   H     71.99000000    50.39000000    37.73000000
   H     72.84000000    51.86000000    38.18000000
   H     72.26000000    51.20000000    35.35000000
   H     71.33000000    52.62000000    34.99000000
   N     71.37000000    49.90000000    41.32000000
   C     72.06000000    49.38000000    42.48000000
   C     72.00000000    50.33000000    43.66000000
   O     72.99000000    50.50000000    44.37000000
   H     70.43000000    49.60000000    41.10000000
   H     73.11000000    49.18000000    42.27000000
   H     71.52000000    48.47000000    42.76000000
   N     70.84000000    50.94000000    43.92000000
   C     70.58000000    51.93000000    44.95000000
   C     70.21000000    51.21000000    46.24000000
   O     69.15000000    51.46000000    46.80000000
   C     69.52000000    52.90000000    44.42000000
   C     69.42000000    54.11000000    45.34000000
   O     69.91000000    53.36000000    43.14000000
   H     70.17000000    50.83000000    43.18000000
   H     71.52000000    52.44000000    45.17000000
   H     68.61000000    52.30000000    44.33000000
   H     69.09000000    53.76000000    42.84000000
   H     70.38000000    54.36000000    45.79000000
   H     68.91000000    54.95000000    44.87000000
   H     68.85000000    53.86000000    46.23000000
   N     71.05000000    50.28000000    46.70000000
   C     70.65000000    49.19000000    47.56000000
   C     70.29000000    49.74000000    48.94000000
   O     70.87000000    50.69000000    49.45000000
   C     71.60000000    48.00000000    47.64000000
   C     72.04000000    47.37000000    46.32000000
   C     72.84000000    48.25000000    48.48000000
   C     70.92000000    47.18000000    45.31000000
   H     71.83000000    50.11000000    46.08000000
   H     69.72000000    48.74000000    47.20000000
   H     70.92000000    47.22000000    48.01000000
   H     72.56000000    46.42000000    46.41000000
   H     72.70000000    48.11000000    45.87000000
   H     73.55000000    48.89000000    47.94000000
   H     72.56000000    48.79000000    49.39000000
   H     73.35000000    47.33000000    48.76000000
   H     70.62000000    48.16000000    44.94000000
   H     71.31000000    46.62000000    44.46000000
   H     70.11000000    46.60000000    45.75000000
   N     69.39000000    49.01000000    49.62000000
   C     69.03000000    49.19000000    51.01000000
   C     68.80000000    47.87000000    51.74000000
   O     68.30000000    46.92000000    51.15000000
   C     67.83000000    50.13000000    51.08000000
   C     66.76000000    49.73000000    50.08000000
   O     66.59000000    50.40000000    49.04000000
   O     65.93000000    48.82000000    50.29000000
   H     69.08000000    48.20000000    49.10000000
   H     69.91000000    49.63000000    51.48000000
   H     68.20000000    51.14000000    50.92000000
   H     67.33000000    50.02000000    52.04000000
   N     69.10000000    47.81000000    53.04000000
   C     68.90000000    46.61000000    53.82000000
   C     69.37000000    45.28000000    53.24000000
   O     70.50000000    45.24000000    52.76000000
   C     69.58000000    46.95000000    55.14000000
   C     69.64000000    45.78000000    56.10000000
   C     70.83000000    45.05000000    56.11000000
   C     68.55000000    45.42000000    56.90000000
   C     70.89000000    43.92000000    56.93000000
   C     68.64000000    44.29000000    57.73000000
   C     69.84000000    43.58000000    57.79000000
   H     69.56000000    48.61000000    53.46000000
   H     67.84000000    46.51000000    54.04000000
   H     69.19000000    47.87000000    55.58000000
   H     70.63000000    47.15000000    54.93000000
   H     71.69000000    45.34000000    55.52000000
   H     67.62000000    45.98000000    56.96000000
   H     71.81000000    43.35000000    57.01000000
   H     67.85000000    43.97000000    58.40000000
   H     69.95000000    42.74000000    58.46000000
   N     68.58000000    44.22000000    53.42000000
   C     69.01000000    42.88000000    53.08000000
   C     69.40000000    42.66000000    51.62000000
   O     70.07000000    41.69000000    51.29000000
   C     67.86000000    41.98000000    53.52000000
   C     67.20000000    42.72000000    54.68000000
   C     67.33000000    44.15000000    54.15000000
   H     69.81000000    42.64000000    53.78000000
   H     67.07000000    41.94000000    52.76000000
   H     68.09000000    40.97000000    53.86000000
   H     66.17000000    42.48000000    54.91000000
   H     67.77000000    42.50000000    55.59000000
   H     66.53000000    44.27000000    53.42000000
   H     67.30000000    44.90000000    54.94000000
   N     69.20000000    43.64000000    50.74000000
   C     69.75000000    43.62000000    49.39000000
   C     71.27000000    43.62000000    49.36000000
   O     71.90000000    42.91000000    48.58000000
   C     69.22000000    44.78000000    48.56000000
   C     67.71000000    44.92000000    48.40000000
   C     67.23000000    46.22000000    47.77000000
   O     66.06000000    46.18000000    47.32000000
   O     67.84000000    47.30000000    47.81000000
   H     68.73000000    44.47000000    51.06000000
   H     69.46000000    42.71000000    48.86000000
   H     69.75000000    44.66000000    47.61000000
   H     69.51000000    45.72000000    49.01000000
   H     67.27000000    44.81000000    49.40000000
   H     67.39000000    44.04000000    47.84000000
   N     71.90000000    44.36000000    50.27000000
   C     73.34000000    44.31000000    50.43000000
   H     73.77600000    45.24600000    50.08100000
   H     73.58400000    44.16600000    51.48200000
   H     73.74300000    43.48200000    49.84600000
   H     71.42000000    44.75000000    51.07000000
  Ca     65.10000000    48.84000000    47.74000000
   O     63.48000000    47.51000000    49.34000000
   H     63.12000000    46.63000000    49.48000000
   H     63.07000000    48.05000000    50.00000000
   O     67.33000000    49.22000000    46.31000000
   H     67.79000000    48.54000000    46.81000000
   H     67.91000000    49.98000000    46.36000000
   O     63.55000000    47.43000000    45.86000000
   H     63.77000000    47.42000000    44.93000000
   H     62.62000000    47.22000000    45.89000000

Ca 1.00



