%chk=loop1.apoCaM-CA-Ng.Init31.run37.water4.chk
%nprocshared=20
%mem=10GB
%nosave
#b3lyp/svp scf=(tight,noincore,xqc) Test 
#IOP(5/87=12) Density=Current Pop=(MK,readradii) iop(6/33=2) iop(6/42=6)

loop1.apoCaM-CA-Ng.Init31.run37.water4 

   0  1 
   C     83.68000000    85.95000000    77.64000000
   C     84.00000000    86.57000000    76.29000000
   O     84.96000000    87.32000000    76.19000000
   H     82.64700000    85.60300000    77.64400000
   H     84.34700000    85.10700000    77.82000000
   H     83.81600000    86.69500000    78.42400000
   N     83.33000000    86.06000000    75.25000000
   C     83.59000000    86.50000000    73.89000000
   C     82.33000000    86.74000000    73.06000000
   O     81.24000000    86.33000000    73.48000000
   C     84.50000000    85.50000000    73.18000000
   C     85.30000000    86.02000000    72.00000000
   O     85.36000000    87.24000000    71.74000000
   O     85.84000000    85.21000000    71.22000000
   H     82.68000000    85.30000000    75.40000000
   H     84.16000000    87.42000000    73.93000000
   H     83.84000000    84.69000000    72.86000000
   H     85.10000000    85.02000000    73.96000000
   N     82.51000000    87.50000000    71.99000000
   C     81.51000000    87.88000000    71.01000000
   C     80.53000000    86.75000000    70.74000000
   O     79.32000000    87.00000000    70.83000000
   C     82.19000000    88.48000000    69.78000000
   C     82.74000000    89.86000000    70.12000000
   C     81.80000000    91.05000000    70.25000000
   C     82.49000000    92.38000000    70.55000000
   N     82.82000000    92.58000000    71.97000000
   H     83.47000000    87.74000000    71.78000000
   H     80.97000000    88.75000000    71.39000000
   H     81.42000000    88.66000000    69.03000000
   H     82.98000000    87.82000000    69.40000000
   H     83.43000000    90.07000000    69.30000000
   H     83.31000000    89.89000000    71.06000000
   H     81.01000000    90.79000000    70.95000000
   H     81.37000000    91.09000000    69.25000000
   H     82.00000000    93.23000000    70.07000000
   H     83.47000000    92.29000000    70.07000000
   H     83.39000000    93.39000000    72.17000000
   H     82.01000000    92.70000000    72.56000000
   H     83.22000000    91.73000000    72.36000000
   N     80.92000000    85.55000000    70.32000000
   C     82.19000000    85.12000000    69.78000000
   C     82.45000000    83.64000000    70.06000000
   O     81.53000000    82.82000000    70.07000000
   C     82.18000000    85.39000000    68.28000000
   C     83.53000000    85.33000000    67.59000000
   O     83.64000000    85.42000000    66.34000000
   O     84.55000000    85.32000000    68.31000000
   H     80.21000000    84.83000000    70.31000000
   H     83.05000000    85.64000000    70.19000000
   H     81.79000000    86.38000000    68.05000000
   H     81.42000000    84.79000000    67.78000000
   N     83.69000000    83.36000000    70.46000000
   C     84.11000000    81.98000000    70.53000000
   C     85.51000000    81.80000000    71.09000000
   O     85.65000000    81.68000000    72.31000000
   H     84.43000000    84.04000000    70.34000000
   H     83.98000000    81.57000000    69.53000000
   H     83.56000000    81.37000000    71.25000000
   N     86.45000000    81.58000000    70.17000000
   C     87.85000000    81.38000000    70.51000000
   C     88.27000000    79.92000000    70.38000000
   O     87.46000000    79.10000000    69.97000000
   C     88.77000000    82.23000000    69.64000000
   C     88.26000000    83.62000000    69.30000000
   O     88.37000000    84.47000000    70.21000000
   O     87.78000000    83.94000000    68.19000000
   H     86.17000000    81.63000000    69.20000000
   H     88.10000000    81.68000000    71.53000000
   H     89.04000000    81.57000000    68.81000000
   H     89.69000000    82.45000000    70.20000000
   N     89.45000000    79.49000000    70.84000000
   C     90.38000000    80.10000000    71.77000000
   C     91.65000000    80.66000000    71.14000000
   O     92.37000000    81.40000000    71.81000000
   H     89.59000000    78.50000000    70.71000000
   H     90.63000000    79.30000000    72.46000000
   H     90.05000000    80.98000000    72.33000000
   N     91.98000000    80.25000000    69.91000000
   C     93.26000000    80.57000000    69.31000000
   C     94.46000000    80.02000000    70.06000000
   O     95.41000000    80.71000000    70.42000000
   C     93.47000000    82.01000000    68.85000000
   C     92.30000000    82.43000000    67.97000000
   O     94.63000000    82.24000000    68.09000000
   H     91.33000000    79.58000000    69.52000000
   H     93.26000000    79.98000000    68.40000000
   H     93.42000000    82.80000000    69.60000000
   H     95.26000000    82.60000000    68.72000000
   H     92.51000000    83.40000000    67.54000000
   H     92.25000000    81.68000000    67.19000000
   H     91.38000000    82.44000000    68.57000000
   N     94.47000000    78.72000000    70.39000000
   C     95.44000000    77.94000000    71.13000000
   C     96.78000000    77.75000000    70.44000000
   O     97.09000000    76.72000000    69.85000000
   C     95.44000000    78.16000000    72.64000000
   C     94.06000000    78.34000000    73.27000000
   C     96.40000000    77.22000000    73.35000000
   C     93.22000000    77.07000000    73.25000000
   H     93.58000000    78.30000000    70.18000000
   H     95.02000000    76.93000000    71.10000000
   H     95.91000000    79.14000000    72.67000000
   H     93.57000000    79.22000000    72.85000000
   H     94.18000000    78.53000000    74.34000000
   H     97.43000000    77.43000000    73.09000000
   H     96.40000000    77.30000000    74.44000000
   H     96.21000000    76.19000000    73.05000000
   H     92.43000000    77.24000000    73.99000000
   H     92.78000000    76.78000000    72.30000000
   H     93.78000000    76.21000000    73.62000000
   N     97.59000000    78.81000000    70.49000000
   C     98.97000000    78.80000000    70.04000000
   C     99.88000000    79.35000000    71.13000000
   O     99.43000000    80.08000000    72.02000000
   C     99.16000000    79.63000000    68.77000000
   C     98.81000000    81.11000000    68.83000000
   O     98.26000000    79.21000000    67.78000000
   H     97.15000000    79.68000000    70.73000000
   H     99.32000000    77.78000000    69.88000000
   H    100.18000000    79.57000000    68.38000000
   H     98.63000000    78.37000000    67.49000000
   H     97.73000000    81.21000000    68.97000000
   H     99.26000000    81.50000000    69.74000000
   H     99.10000000    81.59000000    67.89000000
   N    101.18000000    79.07000000    70.98000000
   C    102.25000000    79.86000000    71.55000000
   C    102.29000000    81.24000000    70.92000000
   O    102.27000000    81.43000000    69.71000000
   C    103.63000000    79.20000000    71.42000000
   C    103.88000000    78.00000000    72.32000000
   O    103.92000000    78.86000000    70.08000000
   H    101.43000000    78.48000000    70.21000000
   H    102.12000000    80.05000000    72.61000000
   H    104.40000000    79.90000000    71.76000000
   H    103.19000000    78.32000000    69.79000000
   H    103.98000000    78.38000000    73.34000000
   H    103.08000000    77.28000000    72.14000000
   H    104.83000000    77.53000000    72.05000000
   N    102.19000000    82.22000000    71.82000000
   C    102.21000000    83.63000000    71.49000000
   C    101.08000000    84.04000000    70.56000000
   O    101.30000000    84.26000000    69.37000000
   C    103.57000000    84.16000000    71.05000000
   C    104.54000000    83.95000000    72.20000000
   C    105.63000000    82.98000000    71.75000000
   C    106.54000000    83.72000000    70.78000000
   N    107.43000000    82.82000000    70.03000000
   H    102.43000000    81.96000000    72.77000000
   H    102.06000000    84.11000000    72.46000000
   H    103.40000000    85.22000000    70.86000000
   H    103.86000000    83.76000000    70.08000000
   H    104.04000000    83.58000000    73.09000000
   H    104.89000000    84.96000000    72.40000000
   H    105.08000000    82.10000000    71.40000000
   H    106.29000000    82.69000000    72.57000000
   H    107.16000000    84.47000000    71.27000000
   H    105.86000000    84.24000000    70.10000000
   H    107.99000000    82.28000000    70.68000000
   H    106.98000000    82.04000000    69.57000000
   H    108.05000000    83.32000000    69.42000000
   N     99.84000000    84.15000000    71.06000000
   C     98.64000000    84.54000000    70.35000000
   C     97.36000000    83.75000000    70.60000000
   O     96.56000000    83.64000000    69.68000000
   C     98.27000000    86.00000000    70.57000000
   C     99.34000000    87.08000000    70.69000000
   C     98.74000000    88.47000000    70.89000000
   O     98.42000000    89.16000000    69.90000000
   O     98.39000000    88.88000000    72.02000000
   H     99.67000000    83.96000000    72.03000000
   H     98.85000000    84.53000000    69.28000000
   H     97.74000000    86.07000000    71.52000000
   H     97.56000000    86.26000000    69.79000000
   H     99.95000000    87.18000000    69.80000000
   H     99.95000000    86.83000000    71.56000000
   N     97.16000000    83.02000000    71.70000000
   C     97.88000000    82.94000000    72.96000000
   H     98.77700000    83.55700000    72.90500000
   H     97.24200000    83.29900000    73.76700000
   H     98.16300000    81.90500000    73.15300000
   H     96.39000000    82.37000000    71.60000000
  Ca     86.80000000    86.42000000    69.19000000
   O     88.21000000    87.88000000    71.15000000
   H     89.05000000    88.28000000    70.94000000
   H     87.78000000    88.50000000    71.74000000
   O     86.71000000    87.12000000    66.63000000
   H     86.18000000    87.06000000    65.84000000
   H     87.41000000    87.74000000    66.40000000
   O     85.88000000    88.99000000    68.89000000
   H     85.28000000    89.06000000    68.15000000
   H     85.81000000    89.84000000    69.33000000
   O     89.19000000    87.06000000    68.56000000
   H     89.86000000    86.37000000    68.63000000
   H     89.67000000    87.83000000    68.27000000

Ca 1.00



