%chk=loop2.holoCaM-CaMKII.run27.water2.chk
%nprocshared=20
%mem=10GB
%nosave
#b3lyp/svp scf=(tight,noincore,xqc) Test 
#IOP(5/87=12) Density=Current Pop=(MK,readradii) iop(6/33=2) iop(6/42=6)

loop2.holoCaM-CaMKII.run27.water2 

   -2  1 
   C     88.95000000    57.85000000    11.80000000
   C     90.33000000    58.06000000    11.19000000
   O     91.06000000    58.92000000    11.67000000
   H     88.22100000    57.69600000    11.00400000
   H     88.96900000    56.97500000    12.44900000
   H     88.67200000    58.72900000    12.38200000
   N     90.70000000    57.23000000    10.20000000
   C     92.04000000    57.41000000     9.69000000
   C     92.24000000    58.58000000     8.73000000
   O     91.30000000    59.10000000     8.13000000
   C     92.35000000    56.13000000     8.91000000
   C     93.83000000    55.94000000     8.62000000
   O     94.67000000    56.51000000     9.34000000
   O     94.16000000    55.08000000     7.78000000
   H     90.07000000    56.67000000     9.66000000
   H     92.72000000    57.62000000    10.51000000
   H     91.69000000    56.06000000     8.04000000
   H     92.08000000    55.33000000     9.59000000
   N     93.54000000    58.88000000     8.61000000
   C     94.11000000    59.83000000     7.68000000
   C     95.57000000    59.53000000     7.35000000
   O     96.30000000    60.48000000     7.09000000
   C     93.85000000    61.26000000     8.14000000
   H     94.17000000    58.38000000     9.23000000
   H     93.51000000    59.78000000     6.78000000
   H     92.78000000    61.43000000     8.30000000
   H     94.34000000    61.46000000     9.10000000
   H     94.23000000    61.98000000     7.41000000
   N     96.10000000    58.32000000     7.49000000
   C     97.52000000    58.07000000     7.31000000
   C     97.72000000    56.68000000     6.73000000
   O     98.73000000    56.51000000     6.05000000
   C     98.35000000    58.21000000     8.58000000
   C     97.85000000    57.39000000     9.77000000
   O     97.45000000    56.22000000     9.67000000
   O     97.76000000    57.91000000    10.90000000
   H     95.56000000    57.62000000     7.98000000
   H     97.88000000    58.83000000     6.62000000
   H     98.68000000    59.22000000     8.84000000
   H     99.26000000    57.69000000     8.29000000
   N     96.82000000    55.72000000     6.95000000
   C     96.82000000    54.38000000     6.40000000
   C     97.72000000    53.39000000     7.13000000
   O     97.95000000    52.29000000     6.63000000
   H     96.08000000    55.84000000     7.62000000
   H     97.22000000    54.50000000     5.39000000
   H     95.80000000    54.02000000     6.46000000
   N     98.23000000    53.82000000     8.28000000
   C     99.13000000    53.02000000     9.09000000
   C     98.45000000    51.81000000     9.73000000
   O     99.17000000    51.03000000    10.35000000
   C     99.86000000    53.95000000    10.04000000
   C     99.11000000    54.32000000    11.31000000
   N     99.80000000    55.08000000    12.18000000
   O     97.97000000    54.01000000    11.63000000
   H     98.05000000    54.78000000     8.53000000
   H     99.97000000    52.66000000     8.49000000
   H    100.20000000    54.77000000     9.41000000
   H    100.74000000    53.39000000    10.36000000
   H    100.70000000    55.52000000    12.04000000
   H     99.18000000    55.49000000    12.87000000
   N     97.16000000    51.56000000     9.54000000
   C     96.42000000    50.34000000     9.80000000
   C     95.92000000    50.16000000    11.22000000
   O     95.25000000    49.17000000    11.50000000
   H     96.76000000    52.29000000     8.95000000
   H     97.07000000    49.51000000     9.51000000
   H     95.55000000    50.35000000     9.15000000
   N     96.15000000    51.16000000    12.08000000
   C     95.90000000    51.23000000    13.51000000
   C     95.30000000    52.57000000    13.92000000
   O     95.48000000    53.54000000    13.18000000
   C     97.18000000    51.08000000    14.32000000
   C     97.89000000    49.73000000    14.22000000
   O     98.15000000    52.09000000    14.07000000
   H     96.69000000    51.93000000    11.74000000
   H     95.18000000    50.45000000    13.75000000
   H     96.91000000    51.24000000    15.36000000
   H     97.75000000    52.84000000    13.64000000
   H     97.06000000    49.03000000    14.36000000
   H     98.32000000    49.58000000    13.24000000
   H     98.65000000    49.68000000    15.00000000
   N     94.71000000    52.61000000    15.12000000
   C     94.29000000    53.82000000    15.80000000
   C     95.57000000    54.46000000    16.32000000
   O     96.35000000    53.79000000    16.98000000
   C     93.35000000    53.46000000    16.95000000
   C     92.07000000    52.84000000    16.40000000
   C     93.05000000    54.75000000    17.70000000
   C     91.01000000    52.56000000    17.46000000
   H     94.68000000    51.75000000    15.64000000
   H     93.80000000    54.42000000    15.03000000
   H     93.87000000    52.87000000    17.70000000
   H     92.32000000    51.89000000    15.92000000
   H     91.67000000    53.56000000    15.69000000
   H     92.41000000    54.61000000    18.57000000
   H     94.00000000    55.18000000    18.02000000
   H     92.46000000    55.47000000    17.12000000
   H     90.61000000    53.50000000    17.84000000
   H     90.15000000    52.04000000    17.04000000
   H     91.48000000    52.08000000    18.32000000
   N     95.75000000    55.75000000    16.01000000
   C     96.66000000    56.66000000    16.67000000
   C     95.99000000    57.57000000    17.69000000
   O     94.77000000    57.67000000    17.63000000
   C     97.51000000    57.49000000    15.71000000
   C     98.11000000    56.65000000    14.59000000
   O     97.43000000    56.38000000    13.58000000
   O     99.33000000    56.38000000    14.66000000
   H     95.12000000    56.15000000    15.33000000
   H     97.43000000    56.09000000    17.18000000
   H     98.28000000    58.09000000    16.21000000
   H     96.84000000    58.29000000    15.40000000
   N     96.70000000    58.11000000    18.69000000
   C     96.09000000    58.95000000    19.70000000
   C     95.50000000    60.25000000    19.18000000
   O     94.45000000    60.60000000    19.70000000
   C     97.13000000    59.17000000    20.79000000
   C     96.56000000    59.98000000    21.93000000
   C     97.05000000    61.28000000    22.16000000
   C     95.57000000    59.50000000    22.79000000
   C     96.50000000    62.12000000    23.13000000
   C     95.16000000    60.23000000    23.91000000
   C     95.66000000    61.52000000    24.09000000
   H     97.70000000    58.01000000    18.70000000
   H     95.27000000    58.45000000    20.22000000
   H     98.01000000    59.63000000    20.34000000
   H     97.48000000    58.19000000    21.10000000
   H     97.77000000    61.63000000    21.44000000
   H     95.14000000    58.52000000    22.60000000
   H     96.68000000    63.18000000    23.22000000
   H     94.42000000    59.96000000    24.65000000
   H     95.30000000    62.16000000    24.88000000
   N     95.93000000    60.86000000    18.07000000
   C     95.20000000    61.90000000    17.38000000
   C     93.86000000    61.54000000    16.78000000
   O     93.09000000    62.40000000    16.34000000
   C     96.15000000    62.42000000    16.31000000
   C     97.55000000    62.09000000    16.82000000
   C     97.24000000    60.74000000    17.46000000
   H     95.12000000    62.76000000    18.05000000
   H     96.00000000    61.86000000    15.39000000
   H     95.97000000    63.49000000    16.19000000
   H     98.27000000    61.96000000    16.00000000
   H     97.73000000    62.88000000    17.55000000
   H     97.25000000    60.04000000    16.63000000
   H     98.03000000    60.53000000    18.18000000
   N     93.49000000    60.26000000    16.73000000
   C     92.29000000    59.70000000    16.14000000
   C     91.35000000    59.18000000    17.22000000
   O     90.18000000    59.53000000    17.16000000
   C     92.70000000    58.54000000    15.23000000
   C     93.66000000    58.93000000    14.11000000
   C     94.25000000    57.74000000    13.36000000
   O     94.78000000    58.01000000    12.26000000
   O     94.16000000    56.60000000    13.85000000
   H     94.10000000    59.56000000    17.13000000
   H     91.76000000    60.37000000    15.46000000
   H     91.73000000    58.16000000    14.89000000
   H     93.23000000    57.84000000    15.88000000
   H     94.46000000    59.58000000    14.45000000
   H     93.13000000    59.55000000    13.38000000
   N     91.83000000    58.56000000    18.30000000
   C     91.08000000    58.37000000    19.53000000
   H     90.08600000    57.98900000    19.29400000
   H     91.60000000    57.65500000    20.16700000
   H     90.98900000    59.32300000    20.05200000
   H     92.81000000    58.32000000    18.27000000
  Ca     95.91000000    55.82000000    11.66000000
   O     93.16000000    54.99000000    11.84000000
   H     92.31000000    54.57000000    11.69000000
   H     92.99000000    55.64000000    12.51000000
   O     95.13000000    53.68000000    10.06000000
   H     94.28000000    53.36000000    10.36000000
   H     94.99000000    53.92000000     9.14000000

Ca 1.00



