%chk=loop1.holoCaM.run81.water2.chk
%nprocshared=20
%mem=10GB
%nosave
#b3lyp/svp scf=(tight,noincore,xqc) Test 
#IOP(5/87=12) Density=Current Pop=(MK,readradii) iop(6/33=2) iop(6/42=6)

loop1.holoCaM.run81.water2 

   0  1 
   C     49.79000000    64.62000000    50.13000000
   C     48.81000000    63.52000000    50.50000000
   O     47.62000000    63.83000000    50.46000000
   H     50.71800000    64.17400000    49.77100000
   H     49.35900000    65.24200000    49.34500000
   H     49.99800000    65.23300000    51.00700000
   N     49.28000000    62.39000000    51.05000000
   C     48.37000000    61.64000000    51.90000000
   C     48.12000000    62.46000000    53.15000000
   O     49.06000000    62.90000000    53.81000000
   C     48.94000000    60.24000000    52.13000000
   C     48.42000000    59.67000000    53.44000000
   O     49.17000000    59.16000000    54.30000000
   O     47.20000000    59.73000000    53.68000000
   H     50.27000000    62.24000000    51.02000000
   H     47.38000000    61.51000000    51.46000000
   H     50.03000000    60.29000000    52.14000000
   H     48.67000000    59.60000000    51.29000000
   N     46.86000000    62.70000000    53.53000000
   C     46.54000000    63.51000000    54.68000000
   C     46.45000000    62.79000000    56.01000000
   O     46.27000000    63.40000000    57.06000000
   C     45.35000000    64.43000000    54.38000000
   C     45.48000000    65.25000000    53.10000000
   C     46.77000000    66.05000000    52.95000000
   C     46.96000000    67.11000000    54.04000000
   N     48.16000000    67.88000000    53.69000000
   H     46.10000000    62.45000000    52.91000000
   H     47.35000000    64.20000000    54.93000000
   H     45.26000000    65.16000000    55.18000000
   H     44.42000000    63.86000000    54.38000000
   H     44.67000000    65.96000000    52.92000000
   H     45.49000000    64.62000000    52.21000000
   H     46.93000000    66.57000000    52.01000000
   H     47.66000000    65.42000000    52.90000000
   H     47.02000000    66.71000000    55.05000000
   H     46.20000000    67.88000000    53.92000000
   H     47.90000000    68.66000000    53.10000000
   H     48.49000000    68.41000000    54.48000000
   H     48.86000000    67.25000000    53.33000000
   N     46.53000000    61.45000000    56.00000000
   C     46.32000000    60.60000000    57.16000000
   C     47.47000000    59.85000000    57.80000000
   O     47.32000000    59.21000000    58.84000000
   C     45.11000000    59.69000000    56.95000000
   C     43.99000000    60.22000000    56.07000000
   O     44.21000000    60.19000000    54.84000000
   O     43.00000000    60.73000000    56.64000000
   H     46.52000000    60.94000000    55.13000000
   H     46.02000000    61.19000000    58.03000000
   H     44.62000000    59.45000000    57.90000000
   H     45.47000000    58.72000000    56.61000000
   N     48.60000000    59.88000000    57.09000000
   C     49.69000000    58.95000000    57.31000000
   C     49.35000000    57.47000000    57.16000000
   O     50.18000000    56.60000000    57.41000000
   H     48.65000000    60.36000000    56.21000000
   H     50.06000000    59.05000000    58.34000000
   H     50.55000000    59.17000000    56.67000000
   N     48.20000000    57.15000000    56.57000000
   C     48.05000000    55.80000000    56.05000000
   C     48.88000000    55.41000000    54.84000000
   O     48.76000000    54.25000000    54.45000000
   C     46.57000000    55.58000000    55.75000000
   C     45.97000000    56.44000000    54.66000000
   O     46.64000000    56.72000000    53.64000000
   O     44.84000000    56.96000000    54.81000000
   H     47.73000000    57.92000000    56.13000000
   H     48.25000000    55.10000000    56.87000000
   H     45.96000000    55.74000000    56.64000000
   H     46.47000000    54.55000000    55.40000000
   N     49.78000000    56.24000000    54.31000000
   C     50.59000000    55.92000000    53.16000000
   C     49.88000000    55.71000000    51.83000000
   O     50.39000000    54.98000000    50.98000000
   H     49.90000000    57.16000000    54.72000000
   H     51.32000000    55.14000000    53.40000000
   H     51.18000000    56.82000000    52.95000000
   N     48.77000000    56.38000000    51.52000000
   C     47.97000000    56.12000000    50.34000000
   C     47.10000000    57.27000000    49.84000000
   O     46.26000000    57.78000000    50.57000000
   C     47.19000000    54.82000000    50.47000000
   C     47.97000000    53.51000000    50.56000000
   O     46.26000000    54.82000000    51.53000000
   H     48.25000000    56.87000000    52.24000000
   H     48.76000000    56.08000000    49.59000000
   H     46.65000000    54.74000000    49.53000000
   H     46.70000000    55.24000000    52.28000000
   H     48.43000000    53.37000000    51.54000000
   H     47.23000000    52.71000000    50.54000000
   H     48.75000000    53.41000000    49.81000000
   N     47.19000000    57.67000000    48.57000000
   C     46.57000000    58.89000000    48.08000000
   C     45.32000000    58.55000000    47.27000000
   O     45.39000000    57.87000000    46.24000000
   C     47.62000000    59.76000000    47.41000000
   C     48.63000000    60.17000000    48.48000000
   C     46.96000000    60.97000000    46.75000000
   C     49.86000000    60.88000000    47.92000000
   H     47.87000000    57.18000000    48.02000000
   H     46.19000000    59.49000000    48.90000000
   H     48.08000000    59.23000000    46.58000000
   H     48.97000000    59.26000000    48.99000000
   H     48.19000000    60.77000000    49.28000000
   H     46.46000000    61.58000000    47.49000000
   H     47.74000000    61.49000000    46.20000000
   H     46.32000000    60.57000000    45.95000000
   H     50.79000000    60.85000000    48.49000000
   H     50.07000000    60.51000000    46.92000000
   H     49.55000000    61.90000000    47.69000000
   N     44.16000000    58.94000000    47.79000000
   C     42.88000000    58.76000000    47.14000000
   C     42.52000000    59.86000000    46.15000000
   O     43.22000000    60.86000000    45.99000000
   C     41.74000000    58.43000000    48.10000000
   C     41.92000000    57.26000000    49.06000000
   O     41.45000000    59.49000000    48.99000000
   H     44.21000000    59.40000000    48.69000000
   H     43.04000000    57.88000000    46.51000000
   H     40.83000000    58.15000000    47.57000000
   H     42.11000000    59.56000000    49.67000000
   H     42.13000000    56.36000000    48.48000000
   H     42.70000000    57.35000000    49.81000000
   H     40.97000000    57.22000000    49.59000000
   N     41.38000000    59.74000000    45.46000000
   C     40.80000000    60.78000000    44.64000000
   C     40.34000000    62.05000000    45.34000000
   O     40.38000000    63.14000000    44.76000000
   C     39.65000000    60.27000000    43.78000000
   C     40.12000000    59.28000000    42.71000000
   O     38.69000000    59.61000000    44.57000000
   H     40.85000000    58.88000000    45.46000000
   H     41.54000000    61.03000000    43.87000000
   H     39.17000000    61.07000000    43.23000000
   H     37.83000000    59.80000000    44.19000000
   H     41.05000000    59.71000000    42.35000000
   H     40.34000000    58.30000000    43.13000000
   H     39.36000000    59.13000000    41.94000000
   N     39.88000000    61.96000000    46.59000000
   C     39.53000000    63.00000000    47.53000000
   C     40.74000000    63.70000000    48.13000000
   O     40.50000000    64.62000000    48.92000000
   C     38.77000000    62.27000000    48.63000000
   C     37.52000000    61.52000000    48.18000000
   C     36.55000000    62.39000000    47.37000000
   C     35.77000000    61.51000000    46.40000000
   N     34.79000000    62.29000000    45.62000000
   H     39.85000000    61.01000000    46.92000000
   H     38.90000000    63.72000000    47.01000000
   H     38.54000000    62.89000000    49.50000000
   H     39.46000000    61.53000000    49.02000000
   H     37.15000000    61.05000000    49.09000000
   H     37.84000000    60.71000000    47.52000000
   H     37.04000000    63.15000000    46.76000000
   H     35.90000000    62.87000000    48.10000000
   H     35.24000000    60.78000000    47.02000000
   H     36.44000000    60.99000000    45.72000000
   H     34.35000000    62.96000000    46.23000000
   H     35.34000000    62.77000000    44.92000000
   H     34.13000000    61.69000000    45.16000000
   N     41.97000000    63.25000000    47.85000000
   C     43.29000000    63.75000000    48.17000000
   C     44.10000000    64.26000000    47.00000000
   O     45.22000000    64.76000000    47.16000000
   C     44.03000000    62.67000000    48.96000000
   C     43.56000000    62.19000000    50.33000000
   C     44.18000000    60.92000000    50.90000000
   O     43.54000000    59.87000000    50.70000000
   O     45.23000000    60.88000000    51.58000000
   H     41.94000000    62.36000000    47.38000000
   H     43.23000000    64.67000000    48.76000000
   H     45.03000000    63.09000000    49.08000000
   H     44.14000000    61.80000000    48.31000000
   H     42.48000000    62.07000000    50.35000000
   H     43.74000000    63.02000000    51.00000000
   N     43.56000000    64.14000000    45.78000000
   C     44.27000000    64.54000000    44.59000000
   H     45.26900000    64.10400000    44.60000000
   H     43.73000000    64.19100000    43.71000000
   H     44.34900000    65.62700000    44.56100000
   H     42.70000000    63.60000000    45.76000000
  Ca     45.04000000    58.63000000    52.81000000
   O     44.06000000    56.25000000    52.00000000
   H     44.43000000    55.38000000    51.85000000
   H     43.12000000    56.14000000    51.91000000
   O     42.46000000    58.41000000    53.19000000
   H     41.97000000    57.68000000    52.82000000
   H     42.00000000    58.61000000    54.01000000

Ca 1.00



