%chk=loop3.apoCaM-CA-Ng.Init293.run59.water6.chk
%nprocshared=20
%mem=10GB
%nosave
#b3lyp/svp scf=(tight,noincore,xqc) Test 
#IOP(5/87=12) Density=Current Pop=(MK,readradii) iop(6/33=2) iop(6/42=6)

loop3.apoCaM-CA-Ng.Init293.run59.water6 

   0  1 
   C     40.21000000    70.62000000    67.91000000
   C     39.43000000    69.90000000    66.82000000
   O     39.88000000    69.83000000    65.68000000
   H     41.11400000    71.05400000    67.48300000
   H     39.59400000    71.41200000    68.33600000
   H     40.48300000    69.91100000    68.69100000
   N     38.23000000    69.40000000    67.11000000
   C     37.43000000    68.56000000    66.25000000
   C     37.20000000    67.21000000    66.93000000
   O     37.43000000    67.01000000    68.12000000
   C     36.06000000    69.19000000    65.99000000
   C     35.07000000    68.57000000    65.02000000
   O     33.91000000    69.02000000    65.11000000
   O     35.48000000    67.68000000    64.24000000
   H     38.02000000    69.38000000    68.10000000
   H     37.84000000    68.25000000    65.29000000
   H     36.29000000    70.17000000    65.56000000
   H     35.59000000    69.40000000    66.95000000
   N     36.70000000    66.21000000    66.20000000
   C     36.22000000    64.92000000    66.63000000
   C     34.91000000    65.13000000    67.37000000
   O     34.51000000    66.24000000    67.70000000
   C     37.22000000    64.04000000    67.39000000
   C     38.42000000    63.76000000    66.49000000
   C     39.29000000    62.56000000    66.85000000
   C     38.57000000    61.24000000    66.60000000
   N     38.21000000    61.06000000    65.19000000
   H     36.47000000    66.38000000    65.23000000
   H     35.88000000    64.26000000    65.83000000
   H     36.78000000    63.09000000    67.71000000
   H     37.62000000    64.55000000    68.27000000
   H     38.99000000    64.68000000    66.40000000
   H     38.16000000    63.51000000    65.46000000
   H     39.57000000    62.68000000    67.89000000
   H     40.24000000    62.59000000    66.31000000
   H     37.61000000    61.37000000    67.10000000
   H     39.25000000    60.43000000    66.85000000
   H     37.48000000    61.66000000    64.85000000
   H     39.04000000    61.17000000    64.63000000
   H     37.88000000    60.11000000    65.10000000
   N     34.17000000    64.05000000    67.64000000
   C     32.77000000    64.03000000    68.03000000
   C     32.50000000    63.71000000    69.50000000
   O     33.36000000    63.14000000    70.16000000
   C     31.98000000    63.08000000    67.15000000
   C     32.56000000    61.67000000    67.22000000
   O     31.85000000    60.67000000    66.97000000
   O     33.78000000    61.38000000    67.31000000
   H     34.57000000    63.16000000    67.39000000
   H     32.45000000    65.07000000    67.92000000
   H     32.14000000    63.44000000    66.13000000
   H     30.92000000    63.01000000    67.38000000
   N     31.22000000    63.94000000    69.81000000
   C     30.43000000    63.04000000    70.62000000
   C     29.40000000    63.73000000    71.51000000
   O     29.06000000    64.90000000    71.38000000
   H     30.75000000    64.54000000    69.14000000
   H     31.01000000    62.43000000    71.31000000
   H     29.92000000    62.29000000    70.01000000
   N     28.89000000    62.89000000    72.42000000
   C     27.94000000    63.23000000    73.45000000
   C     28.38000000    62.95000000    74.87000000
   O     29.20000000    62.07000000    75.13000000
   C     26.65000000    62.51000000    73.05000000
   C     25.43000000    63.00000000    73.83000000
   N     24.63000000    63.94000000    73.32000000
   O     25.26000000    62.51000000    74.94000000
   H     29.26000000    61.95000000    72.43000000
   H     27.64000000    64.28000000    73.35000000
   H     26.88000000    61.46000000    73.25000000
   H     26.50000000    62.70000000    71.99000000
   H     24.69000000    64.23000000    72.36000000
   H     23.79000000    64.16000000    73.83000000
   N     27.94000000    63.81000000    75.79000000
   C     28.24000000    63.79000000    77.20000000
   C     29.75000000    63.88000000    77.42000000
   O     30.46000000    64.62000000    76.74000000
   H     27.25000000    64.50000000    75.54000000
   H     27.81000000    62.87000000    77.61000000
   H     27.72000000    64.57000000    77.76000000
   N     30.17000000    63.13000000    78.44000000
   C     31.50000000    62.85000000    78.93000000
   C     32.44000000    62.02000000    78.05000000
   O     33.48000000    61.61000000    78.55000000
   C     32.19000000    64.14000000    79.36000000
   C     31.55000000    65.02000000    80.41000000
   C     31.15000000    66.31000000    80.05000000
   C     31.38000000    64.48000000    81.69000000
   C     30.51000000    67.04000000    81.06000000
   C     30.79000000    65.24000000    82.71000000
   C     30.37000000    66.54000000    82.37000000
   O     29.75000000    67.32000000    83.30000000
   H     29.44000000    62.52000000    78.79000000
   H     31.44000000    62.19000000    79.80000000
   H     32.43000000    64.63000000    78.42000000
   H     33.20000000    63.89000000    79.67000000
   H     31.46000000    66.72000000    79.10000000
   H     31.75000000    63.51000000    81.98000000
   H     30.21000000    68.05000000    80.84000000
   H     30.68000000    64.85000000    83.71000000
   H     29.68000000    67.00000000    84.20000000
   N     32.03000000    61.82000000    76.80000000
   C     32.84000000    61.40000000    75.67000000
   C     33.26000000    59.94000000    75.74000000
   O     33.58000000    59.34000000    74.72000000
   C     33.99000000    62.29000000    75.23000000
   C     33.60000000    63.76000000    75.14000000
   C     34.94000000    61.93000000    74.10000000
   C     32.72000000    64.03000000    73.92000000
   H     31.06000000    62.07000000    76.62000000
   H     32.07000000    61.42000000    74.90000000
   H     34.65000000    62.20000000    76.10000000
   H     34.44000000    64.43000000    74.97000000
   H     33.08000000    64.13000000    76.02000000
   H     35.38000000    60.96000000    74.35000000
   H     34.46000000    61.78000000    73.13000000
   H     35.77000000    62.62000000    73.92000000
   H     32.65000000    65.11000000    73.81000000
   H     33.09000000    63.65000000    72.97000000
   H     31.74000000    63.57000000    74.02000000
   N     33.31000000    59.24000000    76.88000000
   C     33.33000000    57.80000000    77.04000000
   C     34.55000000    57.10000000    76.47000000
   O     34.52000000    56.02000000    75.88000000
   C     33.13000000    57.48000000    78.52000000
   O     33.83000000    58.26000000    79.46000000
   H     33.02000000    59.74000000    77.71000000
   H     32.42000000    57.40000000    76.59000000
   H     33.42000000    56.44000000    78.64000000
   H     32.07000000    57.60000000    78.72000000
   H     33.45000000    57.93000000    80.28000000
   N     35.70000000    57.77000000    76.65000000
   C     37.03000000    57.24000000    76.45000000
   C     37.40000000    56.78000000    75.05000000
   O     38.20000000    55.89000000    74.80000000
   C     37.30000000    56.25000000    77.58000000
   H     35.67000000    58.65000000    77.14000000
   H     37.72000000    58.05000000    76.69000000
   H     36.67000000    55.37000000    77.47000000
   H     38.34000000    55.92000000    77.57000000
   H     37.19000000    56.75000000    78.54000000
   N     36.69000000    57.42000000    74.11000000
   C     36.73000000    57.23000000    72.68000000
   C     37.88000000    57.96000000    71.98000000
   O     38.00000000    59.17000000    72.12000000
   C     35.35000000    57.65000000    72.17000000
   H     35.96000000    58.09000000    74.32000000
   H     36.88000000    56.17000000    72.47000000
   H     34.63000000    56.85000000    72.36000000
   H     34.90000000    58.50000000    72.69000000
   H     35.36000000    57.80000000    71.10000000
   N     38.52000000    57.18000000    71.11000000
   C     39.52000000    57.66000000    70.18000000
   C     40.55000000    58.55000000    70.85000000
   O     40.97000000    59.52000000    70.23000000
   C     38.88000000    58.36000000    68.99000000
   C     37.88000000    57.54000000    68.18000000
   C     37.29000000    58.29000000    66.99000000
   O     37.88000000    58.40000000    65.90000000
   O     36.20000000    58.90000000    67.05000000
   H     38.17000000    56.23000000    71.04000000
   H     40.02000000    56.77000000    69.79000000
   H     39.68000000    58.73000000    68.35000000
   H     38.40000000    59.27000000    69.36000000
   H     37.09000000    57.13000000    68.80000000
   H     38.48000000    56.72000000    67.79000000
   N     40.93000000    58.27000000    72.10000000
   C     41.78000000    59.19000000    72.82000000
   H     42.68400000    59.37800000    72.24000000
   H     41.24900000    60.12800000    72.97900000
   H     42.05100000    58.75800000    73.78300000
   H     40.58000000    57.39000000    72.44000000
  Ca     33.79000000    58.83000000    66.21000000
   O     34.71000000    56.32000000    66.57000000
   H     35.46000000    56.09000000    66.03000000
   H     34.25000000    55.50000000    66.71000000
   O     31.50000000    57.58000000    66.32000000
   H     30.66000000    58.04000000    66.29000000
   H     31.33000000    56.78000000    66.82000000
   O     32.06000000    59.14000000    63.97000000
   H     31.34000000    59.75000000    64.10000000
   H     31.64000000    58.31000000    63.74000000
   O     34.92000000    57.73000000    64.04000000
   H     35.87000000    57.63000000    64.11000000
   H     34.63000000    56.91000000    63.65000000
   O     33.47000000    58.35000000    68.80000000
   H     33.38000000    57.56000000    69.35000000
   H     33.58000000    59.06000000    69.43000000
   O     35.09000000    60.70000000    64.78000000
   H     35.67000000    60.49000000    64.04000000
   H     34.71000000    61.55000000    64.55000000

Ca 1.00



