%chk=loop4.holoCaM-CaMKII.run6.water2.chk
%nprocshared=20
%mem=10GB
%nosave
#b3lyp/svp scf=(tight,noincore,xqc) Test 
#IOP(5/87=12) Density=Current Pop=(MK,readradii) iop(6/33=2) iop(6/42=6)

loop4.holoCaM-CaMKII.run6.water2 

   -3  1 
   C     73.46000000    54.64000000    36.55000000
   C     72.59000000    53.91000000    37.57000000
   O     71.53000000    54.39000000    37.96000000
   H     74.43300000    54.15300000    36.48900000
   H     72.97800000    54.61100000    35.57300000
   H     73.59200000    55.67700000    36.86000000
   N     72.99000000    52.65000000    37.79000000
   C     72.45000000    51.86000000    38.88000000
   C     72.88000000    52.38000000    40.24000000
   O     74.09000000    52.50000000    40.39000000
   C     72.97000000    50.48000000    38.50000000
   C     72.63000000    49.51000000    39.62000000
   O     71.56000000    49.67000000    40.24000000
   O     73.48000000    48.64000000    39.92000000
   H     73.88000000    52.40000000    37.38000000
   H     71.36000000    51.85000000    38.84000000
   H     74.06000000    50.47000000    38.48000000
   H     72.61000000    50.15000000    37.52000000
   N     71.94000000    52.65000000    41.15000000
   C     72.29000000    53.30000000    42.40000000
   C     72.26000000    52.41000000    43.63000000
   O     73.19000000    52.35000000    44.43000000
   C     71.35000000    54.50000000    42.53000000
   C     71.59000000    55.54000000    41.44000000
   C     71.46000000    55.22000000    43.87000000
   C     70.47000000    56.57000000    41.30000000
   H     70.98000000    52.36000000    41.06000000
   H     73.30000000    53.68000000    42.29000000
   H     70.30000000    54.23000000    42.61000000
   H     71.74000000    55.05000000    40.47000000
   H     72.52000000    56.08000000    41.59000000
   H     71.57000000    54.50000000    44.69000000
   H     72.33000000    55.88000000    43.92000000
   H     70.56000000    55.79000000    44.08000000
   H     70.51000000    57.03000000    40.31000000
   H     69.52000000    56.04000000    41.25000000
   H     70.60000000    57.30000000    42.09000000
   N     71.22000000    51.58000000    43.78000000
   C     71.23000000    50.50000000    44.74000000
   C     72.05000000    49.24000000    44.52000000
   O     72.41000000    48.53000000    45.46000000
   C     69.81000000    50.08000000    45.09000000
   C     68.89000000    49.73000000    43.93000000
   O     67.69000000    49.53000000    44.20000000
   O     69.32000000    49.49000000    42.78000000
   H     70.47000000    51.59000000    43.10000000
   H     71.57000000    50.85000000    45.71000000
   H     69.41000000    50.96000000    45.60000000
   H     69.96000000    49.24000000    45.77000000
   N     72.61000000    49.13000000    43.32000000
   C     73.74000000    48.30000000    42.93000000
   C     73.35000000    46.86000000    42.65000000
   O     73.72000000    45.96000000    43.40000000
   H     72.39000000    49.92000000    42.72000000
   H     74.27000000    48.32000000    43.88000000
   H     74.43000000    48.65000000    42.17000000
   N     72.56000000    46.62000000    41.60000000
   C     72.04000000    45.34000000    41.16000000
   C     72.24000000    44.96000000    39.70000000
   O     71.91000000    43.84000000    39.30000000
   C     70.56000000    45.36000000    41.53000000
   C     69.76000000    46.48000000    40.89000000
   O     70.21000000    47.05000000    39.87000000
   O     68.72000000    46.89000000    41.44000000
   H     72.43000000    47.40000000    40.96000000
   H     72.49000000    44.58000000    41.80000000
   H     70.44000000    45.39000000    42.61000000
   H     70.03000000    44.44000000    41.27000000
   N     72.84000000    45.83000000    38.89000000
   C     73.25000000    45.64000000    37.51000000
   C     72.13000000    45.94000000    36.53000000
   O     72.23000000    45.65000000    35.34000000
   H     72.98000000    46.74000000    39.30000000
   H     73.57000000    44.60000000    37.45000000
   H     73.97000000    46.42000000    37.26000000
   N     71.02000000    46.51000000    37.01000000
   C     69.90000000    46.92000000    36.19000000
   C     69.42000000    48.32000000    36.55000000
   O     69.61000000    48.72000000    37.69000000
   C     68.75000000    45.91000000    36.19000000
   C     68.98000000    44.56000000    35.51000000
   C     67.79000000    43.66000000    35.76000000
   N     67.85000000    42.41000000    35.29000000
   O     66.69000000    43.99000000    36.20000000
   H     70.91000000    46.72000000    37.99000000
   H     70.26000000    46.92000000    35.16000000
   H     67.95000000    46.42000000    35.66000000
   H     68.40000000    45.74000000    37.20000000
   H     69.82000000    44.12000000    36.05000000
   H     69.24000000    44.62000000    34.45000000
   H     68.65000000    42.04000000    34.80000000
   H     67.00000000    41.87000000    35.31000000
   N     68.82000000    49.00000000    35.57000000
   C     68.36000000    50.36000000    35.78000000
   C     66.84000000    50.35000000    35.72000000
   O     66.28000000    50.17000000    34.64000000
   C     69.05000000    51.25000000    34.75000000
   C     68.52000000    52.67000000    34.91000000
   C     70.57000000    51.20000000    34.93000000
   H     68.73000000    48.54000000    34.68000000
   H     68.68000000    50.81000000    36.71000000
   H     68.90000000    50.90000000    33.73000000
   H     68.94000000    53.42000000    34.23000000
   H     67.49000000    52.76000000    34.58000000
   H     68.64000000    53.02000000    35.94000000
   H     71.03000000    51.76000000    34.11000000
   H     70.81000000    51.61000000    35.91000000
   H     70.85000000    50.14000000    34.89000000
   N     66.19000000    50.63000000    36.86000000
   C     64.83000000    51.09000000    37.01000000
   C     64.62000000    52.56000000    36.66000000
   O     65.52000000    53.40000000    36.67000000
   C     64.31000000    50.78000000    38.41000000
   C     62.83000000    50.95000000    38.72000000
   N     61.86000000    50.25000000    38.13000000
   O     62.53000000    51.80000000    39.55000000
   H     66.82000000    50.80000000    37.63000000
   H     64.18000000    50.46000000    36.41000000
   H     64.84000000    51.39000000    39.14000000
   H     64.51000000    49.75000000    38.71000000
   H     62.05000000    49.41000000    37.60000000
   H     60.89000000    50.52000000    38.25000000
   N     63.36000000    52.92000000    36.40000000
   C     62.97000000    54.26000000    36.03000000
   C     63.38000000    55.38000000    36.98000000
   O     63.78000000    56.46000000    36.55000000
   C     61.49000000    54.26000000    35.66000000
   C     61.08000000    55.58000000    35.06000000
   C     61.66000000    56.00000000    33.85000000
   C     59.95000000    56.23000000    35.56000000
   C     61.23000000    57.20000000    33.27000000
   C     59.57000000    57.47000000    35.03000000
   C     60.23000000    57.97000000    33.88000000
   O     59.67000000    59.10000000    33.35000000
   H     62.68000000    52.18000000    36.40000000
   H     63.56000000    54.44000000    35.13000000
   H     60.87000000    54.02000000    36.53000000
   H     61.29000000    53.43000000    34.97000000
   H     62.41000000    55.49000000    33.27000000
   H     59.41000000    55.95000000    36.45000000
   H     61.74000000    57.60000000    32.41000000
   H     58.74000000    57.94000000    35.53000000
   H     58.84000000    59.44000000    33.69000000
   N     63.28000000    55.12000000    38.29000000
   C     63.59000000    56.13000000    39.28000000
   C     65.09000000    56.41000000    39.33000000
   O     65.54000000    57.42000000    39.88000000
   C     63.04000000    55.71000000    40.64000000
   C     61.61000000    55.17000000    40.60000000
   C     60.59000000    56.16000000    40.06000000
   O     60.15000000    56.01000000    38.91000000
   O     60.23000000    57.09000000    40.81000000
   H     62.85000000    54.27000000    38.65000000
   H     63.04000000    57.03000000    39.01000000
   H     63.13000000    56.54000000    41.34000000
   H     63.81000000    55.14000000    41.18000000
   H     61.23000000    54.91000000    41.59000000
   H     61.53000000    54.20000000    40.11000000
   N     65.91000000    55.58000000    38.70000000
   C     67.35000000    55.67000000    38.64000000
   C     67.83000000    56.27000000    37.32000000
   O     68.67000000    57.16000000    37.38000000
   C     67.94000000    54.26000000    38.76000000
   C     67.56000000    53.54000000    40.06000000
   C     68.28000000    52.20000000    40.11000000
   O     69.22000000    52.04000000    40.92000000
   O     67.89000000    51.29000000    39.35000000
   H     65.47000000    54.71000000    38.41000000
   H     67.72000000    56.23000000    39.49000000
   H     69.03000000    54.29000000    38.71000000
   H     67.54000000    53.80000000    37.86000000
   H     66.48000000    53.45000000    40.12000000
   H     67.86000000    54.15000000    40.91000000
   N     67.22000000    55.88000000    36.20000000
   C     67.16000000    56.51000000    34.90000000
   H     66.93000000    57.56900000    35.02000000
   H     68.12200000    56.40200000    34.39900000
   H     66.38200000    56.03600000    34.30100000
   H     66.60000000    55.08000000    36.26000000
  Ca     69.05000000    49.27000000    40.29000000
   O     67.20000000    47.60000000    38.83000000
   H     67.99000000    47.38000000    38.33000000
   H     67.01000000    46.81000000    39.33000000
   O     66.38000000    49.29000000    41.45000000
   H     66.66000000    49.44000000    42.35000000
   H     65.53000000    48.86000000    41.53000000

Ca 1.00



