%chk=loop4.apoCaM-CA-Ng.Init293.run50.water3.chk
%nprocshared=20
%mem=10GB
%nosave
#b3lyp/svp scf=(tight,noincore,xqc) Test 
#IOP(5/87=12) Density=Current Pop=(MK,readradii) iop(6/33=2) iop(6/42=6)

loop4.apoCaM-CA-Ng.Init293.run50.water3 

   -3  1 
   C     41.05000000    60.51000000    68.07000000
   C     40.82000000    60.28000000    66.58000000
   O     40.59000000    61.26000000    65.87000000
   H     41.77900000    61.30900000    68.20500000
   H     40.11000000    60.79200000    68.54400000
   H     41.42700000    59.59400000    68.52600000
   N     40.87000000    59.05000000    66.06000000
   C     40.32000000    58.68000000    64.78000000
   C     40.97000000    59.25000000    63.52000000
   O     40.47000000    59.06000000    62.42000000
   C     38.79000000    58.56000000    64.75000000
   C     37.96000000    59.82000000    64.94000000
   O     38.36000000    60.82000000    64.31000000
   O     36.77000000    59.78000000    65.32000000
   H     41.17000000    58.35000000    66.72000000
   H     40.49000000    57.61000000    64.75000000
   H     38.47000000    57.91000000    65.57000000
   H     38.48000000    58.14000000    63.79000000
   N     42.12000000    59.88000000    63.74000000
   C     42.91000000    60.47000000    62.67000000
   C     42.05000000    61.50000000    61.95000000
   O     41.28000000    62.18000000    62.62000000
   C     44.29000000    61.00000000    63.08000000
   C     45.19000000    59.83000000    63.45000000
   C     44.19000000    62.02000000    64.21000000
   C     46.63000000    60.32000000    63.28000000
   H     42.36000000    60.03000000    64.71000000
   H     43.02000000    59.70000000    61.91000000
   H     44.73000000    61.51000000    62.22000000
   H     44.97000000    59.05000000    62.72000000
   H     44.95000000    59.37000000    64.41000000
   H     44.92000000    62.81000000    64.38000000
   H     43.32000000    62.64000000    64.03000000
   H     44.02000000    61.45000000    65.12000000
   H     47.32000000    59.47000000    63.28000000
   H     46.83000000    61.02000000    62.47000000
   H     46.76000000    60.74000000    64.28000000
   N     42.22000000    61.70000000    60.64000000
   C     41.50000000    62.63000000    59.80000000
   C     40.03000000    62.29000000    59.59000000
   O     39.55000000    61.16000000    59.67000000
   C     42.22000000    62.74000000    58.45000000
   C     42.42000000    61.42000000    57.73000000
   O     41.55000000    60.95000000    56.97000000
   O     43.54000000    60.89000000    57.86000000
   H     42.87000000    61.10000000    60.17000000
   H     41.56000000    63.61000000    60.28000000
   H     43.21000000    63.14000000    58.68000000
   H     41.68000000    63.37000000    57.75000000
   N     39.10000000    63.21000000    59.36000000
   C     39.26000000    64.65000000    59.31000000
   C     39.37000000    65.36000000    60.65000000
   O     39.42000000    64.72000000    61.69000000
   H     38.17000000    62.87000000    59.15000000
   H     38.31000000    64.92000000    58.86000000
   H     40.02000000    65.02000000    58.61000000
   N     39.42000000    66.70000000    60.67000000
   C     39.33000000    67.75000000    59.68000000
   C     40.20000000    67.62000000    58.43000000
   O     39.70000000    67.70000000    57.31000000
   C     39.36000000    69.11000000    60.37000000
   C     39.07000000    70.34000000    59.54000000
   O     39.93000000    70.72000000    58.71000000
   O     38.06000000    71.02000000    59.81000000
   H     39.79000000    67.05000000    61.55000000
   H     38.38000000    67.64000000    59.15000000
   H     40.33000000    69.25000000    60.86000000
   H     38.72000000    69.05000000    61.25000000
   N     41.50000000    67.31000000    58.50000000
   C     42.32000000    67.24000000    59.70000000
   C     43.78000000    67.04000000    59.31000000
   O     44.13000000    66.70000000    58.18000000
   H     42.00000000    67.26000000    57.63000000
   H     41.94000000    66.41000000    60.30000000
   H     42.15000000    68.14000000    60.29000000
   N     44.66000000    67.49000000    60.20000000
   C     46.11000000    67.42000000    60.08000000
   C     46.76000000    67.07000000    61.41000000
   O     47.30000000    67.96000000    62.07000000
   C     46.60000000    68.67000000    59.35000000
   C     48.07000000    68.46000000    59.02000000
   C     48.79000000    69.68000000    58.46000000
   N     49.89000000    69.42000000    57.76000000
   O     48.50000000    70.87000000    58.63000000
   H     44.33000000    67.80000000    61.10000000
   H     46.35000000    66.57000000    59.44000000
   H     46.56000000    69.49000000    60.07000000
   H     46.15000000    68.84000000    58.37000000
   H     48.14000000    67.60000000    58.36000000
   H     48.72000000    68.20000000    59.86000000
   H     50.09000000    68.47000000    57.48000000
   H     50.55000000    70.11000000    57.45000000
   N     46.91000000    65.81000000    61.81000000
   C     47.54000000    65.38000000    63.05000000
   C     46.59000000    65.73000000    64.19000000
   O     45.40000000    65.43000000    64.14000000
   C     47.88000000    63.89000000    63.04000000
   C     48.61000000    63.46000000    64.31000000
   C     48.78000000    63.41000000    61.91000000
   H     46.54000000    65.12000000    61.18000000
   H     48.41000000    66.02000000    63.18000000
   H     46.97000000    63.29000000    63.01000000
   H     49.67000000    63.71000000    64.32000000
   H     48.10000000    63.88000000    65.19000000
   H     48.64000000    62.37000000    64.30000000
   H     48.52000000    63.92000000    60.98000000
   H     49.85000000    63.55000000    62.03000000
   H     48.60000000    62.36000000    61.67000000
   N     47.06000000    66.46000000    65.20000000
   C     46.27000000    66.93000000    66.32000000
   C     45.55000000    68.24000000    65.99000000
   O     44.73000000    68.67000000    66.79000000
   C     47.28000000    67.12000000    67.44000000
   C     46.71000000    67.52000000    68.79000000
   N     47.18000000    68.63000000    69.38000000
   O     45.91000000    66.81000000    69.39000000
   H     48.00000000    66.81000000    65.18000000
   H     45.49000000    66.21000000    66.57000000
   H     47.94000000    67.87000000    67.01000000
   H     47.83000000    66.19000000    67.58000000
   H     47.96000000    69.10000000    68.96000000
   H     47.01000000    68.71000000    70.38000000
   N     45.81000000    68.85000000    64.83000000
   C     45.08000000    69.99000000    64.31000000
   C     43.57000000    69.79000000    64.29000000
   O     43.03000000    68.85000000    63.71000000
   C     45.60000000    70.27000000    62.91000000
   C     45.15000000    71.62000000    62.43000000
   C     43.92000000    71.78000000    61.77000000
   C     46.00000000    72.73000000    62.43000000
   C     43.50000000    73.00000000    61.24000000
   C     45.66000000    73.97000000    61.89000000
   C     44.37000000    74.11000000    61.33000000
   O     43.98000000    75.29000000    60.78000000
   H     46.40000000    68.35000000    64.18000000
   H     45.44000000    70.77000000    64.98000000
   H     45.19000000    69.44000000    62.33000000
   H     46.69000000    70.24000000    63.03000000
   H     43.32000000    70.90000000    61.59000000
   H     46.94000000    72.71000000    62.96000000
   H     42.55000000    73.06000000    60.73000000
   H     46.25000000    74.87000000    61.90000000
   H     43.16000000    75.27000000    60.28000000
   N     42.81000000    70.76000000    64.81000000
   C     41.43000000    70.61000000    65.23000000
   C     41.08000000    69.48000000    66.18000000
   O     39.98000000    69.55000000    66.74000000
   C     40.47000000    70.79000000    64.05000000
   C     40.54000000    72.07000000    63.21000000
   C     40.43000000    73.36000000    64.01000000
   O     39.32000000    73.66000000    64.52000000
   O     41.50000000    73.99000000    64.15000000
   H     43.27000000    71.61000000    65.09000000
   H     41.32000000    71.54000000    65.79000000
   H     39.43000000    70.51000000    64.21000000
   H     40.83000000    70.07000000    63.32000000
   H     39.70000000    71.85000000    62.57000000
   H     41.43000000    71.95000000    62.59000000
   N     41.84000000    68.41000000    66.43000000
   C     41.53000000    67.30000000    67.30000000
   C     41.41000000    67.62000000    68.78000000
   O     41.38000000    66.67000000    69.56000000
   C     42.55000000    66.17000000    67.18000000
   C     42.75000000    65.54000000    65.80000000
   C     41.53000000    64.98000000    65.09000000
   O     41.46000000    65.09000000    63.85000000
   O     40.65000000    64.38000000    65.74000000
   H     42.74000000    68.42000000    65.98000000
   H     40.56000000    66.96000000    66.93000000
   H     42.14000000    65.32000000    67.74000000
   H     43.45000000    66.51000000    67.68000000
   H     43.51000000    64.76000000    65.77000000
   H     43.10000000    66.29000000    65.09000000
   N     41.39000000    68.91000000    69.12000000
   C     41.07000000    69.44000000    70.43000000
   H     40.03400000    69.20400000    70.67400000
   H     41.72900000    68.99300000    71.17400000
   H     41.20400000    70.52200000    70.42800000
   H     41.66000000    69.59000000    68.43000000
  Ca     39.31000000    63.23000000    63.95000000
   O     37.78000000    63.17000000    66.14000000
   H     37.41000000    62.54000000    66.75000000
   H     37.87000000    63.98000000    66.64000000
   O     38.39000000    65.92000000    64.29000000
   H     38.06000000    66.30000000    65.10000000
   H     38.89000000    66.62000000    63.88000000
   O     36.81000000    63.65000000    63.06000000
   H     36.50000000    64.45000000    62.64000000
   H     36.10000000    63.41000000    63.65000000

Ca 1.00



