%chk=loop2.apoCaM-CA-Ng.Init31.run35.water4.chk
%nprocshared=20
%mem=10GB
%nosave
#b3lyp/svp scf=(tight,noincore,xqc) Test 
#IOP(5/87=12) Density=Current Pop=(MK,readradii) iop(6/33=2) iop(6/42=6)

loop2.apoCaM-CA-Ng.Init31.run35.water4 

   -2  1 
   C    117.77000000    66.69000000    83.59000000
   C    116.62000000    67.01000000    82.64000000
   O    115.55000000    66.43000000    82.77000000
   H    118.59500000    67.37900000    83.40600000
   H    117.43100000    66.79700000    84.62000000
   H    118.10700000    65.66700000    83.42200000
   N    116.74000000    67.88000000    81.64000000
   C    117.82000000    68.73000000    81.18000000
   C    118.16000000    68.57000000    79.70000000
   O    117.32000000    68.22000000    78.88000000
   C    117.41000000    70.18000000    81.38000000
   C    115.98000000    70.61000000    81.07000000
   O    115.59000000    71.70000000    81.54000000
   O    115.29000000    69.86000000    80.35000000
   H    115.88000000    67.91000000    81.11000000
   H    118.76000000    68.55000000    81.71000000
   H    118.09000000    70.85000000    80.84000000
   H    117.47000000    70.44000000    82.44000000
   N    119.36000000    69.01000000    79.32000000
   C    119.91000000    69.09000000    77.98000000
   C    119.22000000    69.99000000    76.97000000
   O    119.88000000    70.65000000    76.17000000
   C    120.03000000    67.69000000    77.40000000
   H    119.97000000    69.25000000    80.09000000
   H    120.92000000    69.46000000    78.14000000
   H    120.55000000    67.72000000    76.45000000
   H    120.64000000    67.18000000    78.15000000
   H    119.08000000    67.15000000    77.38000000
   N    117.89000000    70.12000000    76.89000000
   C    117.22000000    70.99000000    75.95000000
   C    116.01000000    71.64000000    76.60000000
   O    115.20000000    71.09000000    77.34000000
   C    116.68000000    70.14000000    74.80000000
   C    115.78000000    68.95000000    75.09000000
   O    115.34000000    68.77000000    76.25000000
   O    115.35000000    68.30000000    74.12000000
   H    117.35000000    69.45000000    77.42000000
   H    117.84000000    71.82000000    75.61000000
   H    117.47000000    69.75000000    74.16000000
   H    116.06000000    70.69000000    74.09000000
   N    115.77000000    72.92000000    76.29000000
   C    114.65000000    73.76000000    76.65000000
   C    113.34000000    73.52000000    75.91000000
   O    113.36000000    73.69000000    74.69000000
   H    116.29000000    73.27000000    75.50000000
   H    114.86000000    74.83000000    76.61000000
   H    114.46000000    73.58000000    77.71000000
   N    112.28000000    73.13000000    76.62000000
   C    110.94000000    73.06000000    76.09000000
   C    110.00000000    73.92000000    76.93000000
   O    109.97000000    73.73000000    78.14000000
   C    110.58000000    71.58000000    76.13000000
   C    111.54000000    70.65000000    75.40000000
   N    111.58000000    70.73000000    74.07000000
   O    112.22000000    69.84000000    76.03000000
   H    112.40000000    73.16000000    77.63000000
   H    111.00000000    73.40000000    75.05000000
   H    109.65000000    71.46000000    75.57000000
   H    110.53000000    71.30000000    77.18000000
   H    111.09000000    71.52000000    73.67000000
   H    112.17000000    70.12000000    73.53000000
   N    109.19000000    74.82000000    76.37000000
   C    108.07000000    75.42000000    77.06000000
   C    107.07000000    76.01000000    76.07000000
   O    107.22000000    75.88000000    74.86000000
   H    109.21000000    74.89000000    75.37000000
   H    108.43000000    76.10000000    77.83000000
   H    107.55000000    74.65000000    77.63000000
   N    106.10000000    76.79000000    76.57000000
   C    105.84000000    77.05000000    77.97000000
   C    105.11000000    75.98000000    78.78000000
   O    105.08000000    76.09000000    80.00000000
   C    105.12000000    78.38000000    78.15000000
   C    105.75000000    79.59000000    77.47000000
   O    103.79000000    78.28000000    77.69000000
   H    105.52000000    77.24000000    75.88000000
   H    106.75000000    77.18000000    78.55000000
   H    105.23000000    78.56000000    79.21000000
   H    103.17000000    78.52000000    78.39000000
   H    106.84000000    79.45000000    77.50000000
   H    105.52000000    79.67000000    76.40000000
   H    105.42000000    80.58000000    77.78000000
   N    104.60000000    74.95000000    78.10000000
   C    103.89000000    73.81000000    78.64000000
   C    102.46000000    74.17000000    79.05000000
   O    102.24000000    75.10000000    79.82000000
   C    104.65000000    73.08000000    79.74000000
   C    106.10000000    72.71000000    79.44000000
   C    103.89000000    71.84000000    80.18000000
   C    106.33000000    71.93000000    78.15000000
   H    104.75000000    74.94000000    77.10000000
   H    103.83000000    73.17000000    77.76000000
   H    104.64000000    73.74000000    80.61000000
   H    106.68000000    72.27000000    80.26000000
   H    106.65000000    73.65000000    79.45000000
   H    103.82000000    71.13000000    79.36000000
   H    104.42000000    71.29000000    80.96000000
   H    102.87000000    72.12000000    80.46000000
   H    106.15000000    72.54000000    77.26000000
   H    107.38000000    71.66000000    78.07000000
   H    105.81000000    70.97000000    78.20000000
   N    101.38000000    73.52000000    78.62000000
   C    101.33000000    72.37000000    77.74000000
   C    100.62000000    71.16000000    78.32000000
   O    101.01000000    70.06000000    77.92000000
   C    100.83000000    72.74000000    76.35000000
   C     99.51000000    73.48000000    76.38000000
   O     98.96000000    73.83000000    77.45000000
   O     99.02000000    73.75000000    75.25000000
   H    100.51000000    73.88000000    78.98000000
   H    102.35000000    72.02000000    77.56000000
   H    100.88000000    71.85000000    75.71000000
   H    101.56000000    73.43000000    75.92000000
   N     99.65000000    71.25000000    79.23000000
   C     98.98000000    70.16000000    79.91000000
   C     97.53000000    69.95000000    79.51000000
   O     96.99000000    70.84000000    78.85000000
   C     98.96000000    70.55000000    81.39000000
   C     98.11000000    71.75000000    81.74000000
   C     98.57000000    73.06000000    81.56000000
   C     96.87000000    71.54000000    82.36000000
   C     97.77000000    74.15000000    81.89000000
   C     96.11000000    72.66000000    82.71000000
   C     96.46000000    73.96000000    82.35000000
   H     99.21000000    72.15000000    79.36000000
   H     99.58000000    69.26000000    79.81000000
   H     99.96000000    70.69000000    81.79000000
   H     98.53000000    69.67000000    81.88000000
   H     99.60000000    73.18000000    81.26000000
   H     96.54000000    70.53000000    82.57000000
   H     98.24000000    75.12000000    81.81000000
   H     95.21000000    72.36000000    83.24000000
   H     95.87000000    74.81000000    82.66000000
   N     96.82000000    68.83000000    79.71000000
   C     97.29000000    67.62000000    80.35000000
   C     98.21000000    66.79000000    79.46000000
   O     98.35000000    67.02000000    78.26000000
   C     96.01000000    66.92000000    80.79000000
   C     95.06000000    67.21000000    79.63000000
   C     95.42000000    68.67000000    79.39000000
   H     97.87000000    67.76000000    81.26000000
   H     96.21000000    65.85000000    80.87000000
   H     95.70000000    67.16000000    81.81000000
   H     95.37000000    66.59000000    78.79000000
   H     94.04000000    66.97000000    79.92000000
   H     95.28000000    68.89000000    78.33000000
   H     94.80000000    69.31000000    80.01000000
   N     98.75000000    65.69000000    79.98000000
   C     99.75000000    64.90000000    79.27000000
   C    101.22000000    65.13000000    79.59000000
   O    102.04000000    64.77000000    78.75000000
   C     99.32000000    63.45000000    79.14000000
   C     99.43000000    62.71000000    80.48000000
   C     99.27000000    61.20000000    80.39000000
   O     99.62000000    60.57000000    79.37000000
   O     98.70000000    60.66000000    81.36000000
   H     98.62000000    65.49000000    80.96000000
   H     99.71000000    65.33000000    78.27000000
   H     99.98000000    62.96000000    78.42000000
   H     98.30000000    63.26000000    78.79000000
   H     98.51000000    63.01000000    80.99000000
   H    100.36000000    62.99000000    80.98000000
   N    101.82000000    65.72000000    80.63000000
   C    101.26000000    66.39000000    81.79000000
   H    100.24600000    66.02900000    81.96300000
   H    101.87500000    66.17800000    82.66500000
   H    101.23700000    67.46500000    81.61300000
   H    102.81000000    65.87000000    80.50000000
  Ca    113.83900000    69.05000000    78.22000000
   O    112.58900000    68.07000000    80.35000000
   H    112.05900000    67.29000000    80.14000000
   H    112.35900000    68.28000000    81.25000000
   O    115.10900000    66.90000000    79.22000000
   H    116.03900000    67.08000000    79.10000000
   H    114.97900000    66.02000000    78.88000000
   O    112.85900000    66.57000000    77.34000000
   H    112.24900000    65.85000000    77.50000000
   H    113.13900000    66.45000000    76.43000000
   O    112.62900000    71.28000000    79.34000000
   H    112.96900000    72.03000000    79.82000000
   H    111.78900000    71.08000000    79.76000000

Ca 1.00



