%chk=loop2.apoCaM-CA-Ng.Init31.run38.water4.chk
%nprocshared=20
%mem=10GB
%nosave
#b3lyp/svp scf=(tight,noincore,xqc) Test 
#IOP(5/87=12) Density=Current Pop=(MK,readradii) iop(6/33=2) iop(6/42=6)

loop2.apoCaM-CA-Ng.Init31.run38.water4 

   -2  1 
   C    109.28000000    63.86000000    85.56000000
   C    107.90000000    63.51000000    85.02000000
   O    107.13000000    62.84000000    85.70000000
   H    109.95700000    64.05200000    84.72800000
   H    109.21100000    64.75100000    86.18400000
   H    109.66000000    63.02800000    86.15300000
   N    107.44000000    63.90000000    83.83000000
   C    108.05000000    64.86000000    82.93000000
   C    107.95000000    64.52000000    81.45000000
   O    106.88000000    64.06000000    81.04000000
   C    107.48000000    66.26000000    83.18000000
   C    105.97000000    66.34000000    83.38000000
   O    105.22000000    65.49000000    82.85000000
   O    105.50000000    67.30000000    84.03000000
   H    106.47000000    63.62000000    83.80000000
   H    109.10000000    65.00000000    83.19000000
   H    107.78000000    66.95000000    82.40000000
   H    107.89000000    66.62000000    84.13000000
   N    109.03000000    64.73000000    80.70000000
   C    109.14000000    64.53000000    79.27000000
   C    108.17000000    65.23000000    78.33000000
   O    108.67000000    65.83000000    77.38000000
   C    109.14000000    63.04000000    78.95000000
   H    109.84000000    65.18000000    81.09000000
   H    110.12000000    64.96000000    79.07000000
   H    109.63000000    62.86000000    77.99000000
   H    109.68000000    62.48000000    79.72000000
   H    108.13000000    62.63000000    79.02000000
   N    106.88000000    65.35000000    78.65000000
   C    105.88000000    66.07000000    77.89000000
   C    104.96000000    66.86000000    78.80000000
   O    104.62000000    66.41000000    79.89000000
   C    105.17000000    65.21000000    76.84000000
   C    104.56000000    63.92000000    77.37000000
   O    104.54000000    63.76000000    78.61000000
   O    104.22000000    63.01000000    76.58000000
   H    106.56000000    64.86000000    79.47000000
   H    106.43000000    66.83000000    77.34000000
   H    105.82000000    65.03000000    75.99000000
   H    104.33000000    65.79000000    76.45000000
   N    104.62000000    68.07000000    78.32000000
   C    103.71000000    68.94000000    79.02000000
   C    102.26000000    68.65000000    78.64000000
   O    101.97000000    68.31000000    77.49000000
   H    104.94000000    68.37000000    77.41000000
   H    104.06000000    69.97000000    78.87000000
   H    103.74000000    68.81000000    80.10000000
   N    101.44000000    68.47000000    79.67000000
   C    100.07000000    68.04000000    79.49000000
   C     99.08000000    69.04000000    80.07000000
   O     99.50000000    69.79000000    80.95000000
   C     99.93000000    66.69000000    80.19000000
   C    100.93000000    65.66000000    79.70000000
   N    100.59000000    65.04000000    78.57000000
   O    101.93000000    65.36000000    80.35000000
   H    101.73000000    68.92000000    80.53000000
   H     99.80000000    67.87000000    78.44000000
   H     98.91000000    66.31000000    80.17000000
   H    100.12000000    66.79000000    81.26000000
   H     99.71000000    65.41000000    78.22000000
   H    101.20000000    64.36000000    78.14000000
   N     97.87000000    69.13000000    79.53000000
   C     96.85000000    70.12000000    79.81000000
   C     95.53000000    69.59000000    79.28000000
   O     95.46000000    68.63000000    78.52000000
   H     97.64000000    68.48000000    78.79000000
   H     97.12000000    71.07000000    79.33000000
   H     96.73000000    70.34000000    80.87000000
   N     94.35000000    69.97000000    79.77000000
   C     93.95000000    70.63000000    81.00000000
   C     93.94000000    69.74000000    82.24000000
   O     94.00000000    70.19000000    83.38000000
   C     92.64000000    71.41000000    80.95000000
   C     92.74000000    72.78000000    80.29000000
   O     91.72000000    70.68000000    80.17000000
   H     93.53000000    69.72000000    79.23000000
   H     94.73000000    71.37000000    81.16000000
   H     92.33000000    71.58000000    81.99000000
   H     91.16000000    70.22000000    80.80000000
   H     93.26000000    72.60000000    79.35000000
   H     91.75000000    73.15000000    80.03000000
   H     93.41000000    73.34000000    80.95000000
   N     93.93000000    68.42000000    82.10000000
   C     93.73000000    67.31000000    83.01000000
   C     92.41000000    67.42000000    83.75000000
   O     92.14000000    68.39000000    84.45000000
   C     94.85000000    67.21000000    84.05000000
   C     96.26000000    67.54000000    83.56000000
   C     94.85000000    65.77000000    84.54000000
   C     96.69000000    66.72000000    82.35000000
   H     93.95000000    68.08000000    81.15000000
   H     93.74000000    66.42000000    82.39000000
   H     94.69000000    67.86000000    84.91000000
   H     96.79000000    67.15000000    84.43000000
   H     96.45000000    68.60000000    83.46000000
   H     95.54000000    65.59000000    85.37000000
   H     93.87000000    65.65000000    85.00000000
   H     95.04000000    64.97000000    83.82000000
   H     96.31000000    67.20000000    81.45000000
   H     97.77000000    66.78000000    82.32000000
   H     96.45000000    65.67000000    82.54000000
   N     91.51000000    66.43000000    83.82000000
   C     91.40000000    65.37000000    82.83000000
   C     91.54000000    64.03000000    83.53000000
   O     92.19000000    63.14000000    82.99000000
   C     90.05000000    65.36000000    82.11000000
   C     88.75000000    65.57000000    82.88000000
   O     88.82000000    65.76000000    84.11000000
   O     87.63000000    65.68000000    82.34000000
   H     90.70000000    66.62000000    84.39000000
   H     92.16000000    65.35000000    82.04000000
   H     89.88000000    64.41000000    81.61000000
   H     90.08000000    66.02000000    81.24000000
   N     91.09000000    63.87000000    84.78000000
   C     91.14000000    62.62000000    85.52000000
   C     89.99000000    61.65000000    85.29000000
   O     88.95000000    62.11000000    84.81000000
   C     91.35000000    62.84000000    87.01000000
   C     90.47000000    63.86000000    87.69000000
   C     90.69000000    65.24000000    87.58000000
   C     89.47000000    63.34000000    88.52000000
   C     89.76000000    66.09000000    88.19000000
   C     88.56000000    64.24000000    89.09000000
   C     88.65000000    65.62000000    88.89000000
   H     90.51000000    64.59000000    85.19000000
   H     92.02000000    62.04000000    85.23000000
   H     92.40000000    63.09000000    87.20000000
   H     91.15000000    61.87000000    87.47000000
   H     91.40000000    65.60000000    86.85000000
   H     89.29000000    62.28000000    88.60000000
   H     89.81000000    67.16000000    88.05000000
   H     87.71000000    63.88000000    89.66000000
   H     87.82000000    66.25000000    89.17000000
   N     90.14000000    60.35000000    85.53000000
   C     91.32000000    59.65000000    86.01000000
   C     92.39000000    59.32000000    84.99000000
   O     92.23000000    59.71000000    83.83000000
   C     90.70000000    58.43000000    86.70000000
   C     89.45000000    58.08000000    85.89000000
   C     89.02000000    59.44000000    85.36000000
   H     91.80000000    60.19000000    86.83000000
   H     91.38000000    57.58000000    86.67000000
   H     90.46000000    58.55000000    87.75000000
   H     89.82000000    57.52000000    85.03000000
   H     88.63000000    57.50000000    86.31000000
   H     88.83000000    59.35000000    84.29000000
   H     88.13000000    59.82000000    85.87000000
   N     93.47000000    58.73000000    85.50000000
   C     94.57000000    58.30000000    84.66000000
   C     95.88000000    59.07000000    84.72000000
   O     96.63000000    59.13000000    83.76000000
   C     94.83000000    56.83000000    84.98000000
   C     93.72000000    55.96000000    84.39000000
   C     94.31000000    54.56000000    84.31000000
   O     94.41000000    53.88000000    85.35000000
   O     94.83000000    54.22000000    83.22000000
   H     93.44000000    58.41000000    86.46000000
   H     94.26000000    58.43000000    83.62000000
   H     94.92000000    56.69000000    86.06000000
   H     95.74000000    56.47000000    84.49000000
   H     93.50000000    56.42000000    83.43000000
   H     92.83000000    55.98000000    85.02000000
   N     96.30000000    59.82000000    85.75000000
   C     95.60000000    60.42000000    86.86000000
   H     94.60200000    59.98800000    86.93600000
   H     96.14900000    60.22900000    87.78200000
   H     95.51900000    61.49500000    86.70100000
   H     97.24000000    60.14000000    85.53000000
  Ca    104.09800000    63.91000000    81.11000000
   O    104.76800000    62.38000000    83.23000000
   H    105.38800000    61.72000000    83.52000000
   H    104.09800000    62.40000000    83.92000000
   O    102.27800000    62.17000000    80.06000000
   H    101.31800000    62.22000000    80.07000000
   H    102.48800000    61.77000000    79.21000000
   O    105.52800000    61.46000000    80.53000000
   H    105.85800000    61.23000000    79.66000000
   H    105.05800000    60.68000000    80.82000000
   O    102.09800000    63.58000000    82.98000000
   H    101.43800000    64.28000000    83.01000000
   H    101.58800000    62.78000000    82.87000000

Ca 1.00



