%chk=loop4.apoCaM-CA-Ng.Init295.run77.water3.chk
%nprocshared=20
%mem=10GB
%nosave
#b3lyp/svp scf=(tight,noincore,xqc) Test 
#IOP(5/87=12) Density=Current Pop=(MK,readradii) iop(6/33=2) iop(6/42=6)

loop4.apoCaM-CA-Ng.Init295.run77.water3 

   -3  1 
   C    -11.62000000   -24.28000000    34.92000000
   C    -12.12000000   -25.71000000    34.88000000
   O    -12.68000000   -26.22000000    35.85000000
   H    -10.66200000   -24.21600000    34.40400000
   H    -12.34200000   -23.62800000    34.42700000
   H    -11.49500000   -23.96700000    35.95700000
   N    -12.04000000   -26.35000000    33.71000000
   C    -12.44000000   -27.71000000    33.42000000
   C    -13.86000000   -28.07000000    33.82000000
   O    -14.13000000   -29.26000000    33.89000000
   C    -11.44000000   -28.77000000    33.90000000
   C    -10.04000000   -28.21000000    34.02000000
   O     -9.47000000   -27.65000000    33.06000000
   O     -9.42000000   -28.34000000    35.10000000
   H    -11.58000000   -25.86000000    32.95000000
   H    -12.37000000   -27.68000000    32.33000000
   H    -11.45000000   -29.74000000    33.39000000
   H    -11.76000000   -28.94000000    34.93000000
   N    -14.82000000   -27.16000000    34.01000000
   C    -16.24000000   -27.26000000    34.29000000
   C    -16.96000000   -28.21000000    33.34000000
   O    -17.13000000   -27.86000000    32.17000000
   C    -16.85000000   -25.87000000    34.25000000
   C    -16.07000000   -24.92000000    35.16000000
   C    -18.32000000   -25.94000000    34.65000000
   C    -15.98000000   -25.25000000    36.64000000
   H    -14.54000000   -26.19000000    34.00000000
   H    -16.42000000   -27.71000000    35.27000000
   H    -16.80000000   -25.42000000    33.26000000
   H    -16.48000000   -23.92000000    35.02000000
   H    -15.07000000   -24.85000000    34.73000000
   H    -18.44000000   -26.47000000    35.60000000
   H    -18.64000000   -24.89000000    34.68000000
   H    -18.91000000   -26.48000000    33.91000000
   H    -15.45000000   -24.50000000    37.22000000
   H    -16.97000000   -25.46000000    37.05000000
   H    -15.35000000   -26.13000000    36.81000000
   N    -17.49000000   -29.39000000    33.66000000
   C    -17.33000000   -30.11000000    34.91000000
   C    -17.00000000   -31.59000000    34.81000000
   O    -16.50000000   -32.11000000    35.81000000
   C    -18.29000000   -29.71000000    36.03000000
   C    -19.76000000   -29.80000000    35.66000000
   O    -20.66000000   -29.09000000    36.16000000
   O    -20.07000000   -30.79000000    34.97000000
   H    -17.95000000   -29.77000000    32.85000000
   H    -16.38000000   -29.81000000    35.35000000
   H    -18.08000000   -28.66000000    36.23000000
   H    -18.03000000   -30.34000000    36.88000000
   N    -17.15000000   -32.32000000    33.71000000
   C    -16.52000000   -33.61000000    33.46000000
   C    -17.00000000   -34.71000000    34.40000000
   O    -18.21000000   -34.92000000    34.38000000
   H    -17.45000000   -31.93000000    32.82000000
   H    -15.44000000   -33.58000000    33.36000000
   H    -16.99000000   -33.89000000    32.52000000
   N    -16.05000000   -35.38000000    35.06000000
   C    -16.32000000   -36.39000000    36.06000000
   C    -16.78000000   -35.81000000    37.39000000
   O    -17.10000000   -36.60000000    38.27000000
   C    -15.08000000   -37.25000000    36.24000000
   C    -13.79000000   -36.51000000    36.56000000
   O    -12.67000000   -37.05000000    36.47000000
   O    -13.86000000   -35.27000000    36.63000000
   H    -15.09000000   -35.08000000    34.93000000
   H    -17.12000000   -37.01000000    35.67000000
   H    -14.83000000   -37.84000000    35.36000000
   H    -15.31000000   -37.91000000    37.08000000
   N    -16.95000000   -34.51000000    37.65000000
   C    -17.28000000   -33.99000000    38.96000000
   C    -16.13000000   -34.14000000    39.96000000
   O    -16.33000000   -33.99000000    41.16000000
   H    -16.93000000   -33.89000000    36.85000000
   H    -18.09000000   -34.54000000    39.45000000
   H    -17.48000000   -32.93000000    38.83000000
   N    -14.99000000   -34.52000000    39.39000000
   C    -13.74000000   -34.90000000    40.01000000
   C    -13.15000000   -33.94000000    41.04000000
   O    -12.57000000   -34.42000000    42.01000000
   C    -13.76000000   -36.38000000    40.36000000
   C    -14.72000000   -36.86000000    41.45000000
   C    -15.05000000   -38.34000000    41.56000000
   N    -15.52000000   -38.97000000    40.48000000
   O    -14.93000000   -38.94000000    42.62000000
   H    -15.01000000   -34.55000000    38.38000000
   H    -12.99000000   -34.68000000    39.24000000
   H    -12.73000000   -36.67000000    40.55000000
   H    -14.05000000   -36.93000000    39.46000000
   H    -15.68000000   -36.33000000    41.43000000
   H    -14.27000000   -36.59000000    42.40000000
   H    -15.72000000   -38.34000000    39.72000000
   H    -15.61000000   -39.97000000    40.55000000
   N    -13.38000000   -32.64000000    40.90000000
   C    -12.77000000   -31.61000000    41.72000000
   C    -11.33000000   -31.45000000    41.26000000
   O    -11.04000000   -31.57000000    40.08000000
   C    -13.55000000   -30.30000000    41.66000000
   C    -15.06000000   -30.48000000    41.77000000
   C    -13.06000000   -29.27000000    42.67000000
   H    -13.92000000   -32.29000000    40.12000000
   H    -12.82000000   -32.00000000    42.74000000
   H    -13.39000000   -29.84000000    40.68000000
   H    -15.27000000   -31.09000000    42.64000000
   H    -15.46000000   -29.47000000    41.81000000
   H    -15.44000000   -31.05000000    40.92000000
   H    -12.13000000   -28.85000000    42.28000000
   H    -13.82000000   -28.49000000    42.72000000
   H    -12.88000000   -29.76000000    43.63000000
   N    -10.43000000   -31.25000000    42.23000000
   C     -9.04000000   -30.89000000    42.07000000
   C     -8.76000000   -29.66000000    42.92000000
   O     -9.59000000   -29.19000000    43.70000000
   C     -8.21000000   -32.15000000    42.34000000
   C     -8.31000000   -33.37000000    41.44000000
   N     -8.33000000   -33.31000000    40.10000000
   O     -8.12000000   -34.50000000    41.88000000
   H    -10.80000000   -31.13000000    43.16000000
   H     -8.94000000   -30.61000000    41.02000000
   H     -8.34000000   -32.45000000    43.38000000
   H     -7.16000000   -31.87000000    42.21000000
   H     -8.40000000   -32.42000000    39.63000000
   H     -8.44000000   -34.19000000    39.62000000
   N     -7.56000000   -29.08000000    42.81000000
   C     -7.05000000   -27.92000000    43.51000000
   C     -6.22000000   -27.04000000    42.59000000
   O     -5.22000000   -26.45000000    43.01000000
   C     -6.45000000   -28.43000000    44.82000000
   C     -6.00000000   -27.40000000    45.83000000
   C     -6.97000000   -26.69000000    46.54000000
   C     -4.69000000   -27.42000000    46.32000000
   C     -6.70000000   -26.01000000    47.73000000
   C     -4.31000000   -26.59000000    47.38000000
   C     -5.35000000   -26.02000000    48.13000000
   O     -5.03000000   -25.30000000    49.25000000
   H     -6.88000000   -29.58000000    42.25000000
   H     -7.93000000   -27.30000000    43.68000000
   H     -5.56000000   -28.94000000    44.45000000
   H     -7.07000000   -29.16000000    45.34000000
   H     -8.00000000   -26.68000000    46.21000000
   H     -3.93000000   -27.96000000    45.77000000
   H     -7.50000000   -25.49000000    48.24000000
   H     -3.29000000   -26.59000000    47.74000000
   H     -4.08000000   -25.35000000    49.39000000
   N     -6.47000000   -27.18000000    41.29000000
   C     -5.50000000   -27.00000000    40.23000000
   C     -5.11000000   -25.59000000    39.82000000
   O     -3.94000000   -25.28000000    39.59000000
   C     -5.91000000   -27.83000000    39.01000000
   C     -4.91000000   -27.92000000    37.86000000
   C     -5.43000000   -28.91000000    36.83000000
   O     -6.48000000   -28.64000000    36.22000000
   O     -4.84000000   -30.00000000    36.64000000
   H     -7.33000000   -27.68000000    41.10000000
   H     -4.57000000   -27.49000000    40.52000000
   H     -6.84000000   -27.45000000    38.60000000
   H     -6.16000000   -28.86000000    39.27000000
   H     -3.96000000   -28.13000000    38.34000000
   H     -4.84000000   -27.00000000    37.27000000
   N     -5.98000000   -24.58000000    39.87000000
   C     -7.41000000   -24.66000000    39.64000000
   C     -8.16000000   -24.25000000    40.90000000
   O     -7.65000000   -23.68000000    41.87000000
   C     -7.72000000   -23.63000000    38.56000000
   C     -6.84000000   -23.60000000    37.31000000
   C     -6.82000000   -24.86000000    36.46000000
   O     -7.80000000   -25.63000000    36.56000000
   O     -5.82000000   -25.13000000    35.75000000
   H     -5.60000000   -23.64000000    39.89000000
   H     -7.65000000   -25.64000000    39.24000000
   H     -7.50000000   -22.67000000    39.05000000
   H     -8.76000000   -23.79000000    38.32000000
   H     -5.85000000   -23.41000000    37.71000000
   H     -7.08000000   -22.79000000    36.62000000
   N     -9.45000000   -24.59000000    40.88000000
   C    -10.43000000   -24.49000000    41.95000000
   H    -11.36700000   -24.94400000    41.62700000
   H    -10.06000000   -25.01200000    42.83300000
   H    -10.59900000   -23.44100000    42.19200000
   H     -9.88000000   -24.92000000    40.03000000
  Ca     -7.25500000   -26.92500000    34.26000000
   O     -7.21500000   -25.82500000    31.70000000
   H     -6.59500000   -25.09500000    31.72000000
   H     -6.89500000   -26.38500000    30.99000000
   O     -6.92500000   -29.19500000    32.65000000
   H     -6.41500000   -29.98500000    32.82000000
   H     -7.71500000   -29.51500000    32.21000000
   O     -4.69500000   -26.94500000    33.99000000
   H     -3.97500000   -26.41500000    34.34000000
   H     -4.29500000   -27.80500000    33.83000000

Ca 1.00



