%chk=loop4.apoCaM-CA-Ng.Init295.run15.water6.chk
%nprocshared=20
%mem=10GB
%nosave
#b3lyp/svp scf=(tight,noincore,xqc) Test 
#IOP(5/87=12) Density=Current Pop=(MK,readradii) iop(6/33=2) iop(6/42=6)

loop4.apoCaM-CA-Ng.Init295.run15.water6 

   -3  1 
   C    107.63000000    31.50000000    73.51000000
   C    108.91000000    32.15000000    74.02000000
   O    109.30000000    33.27000000    73.71000000
   H    106.86100000    32.26200000    73.38600000
   H    107.82300000    31.01900000    72.55100000
   H    107.28900000    30.75500000    74.22900000
   N    109.72000000    31.42000000    74.80000000
   C    110.87000000    31.97000000    75.49000000
   C    110.52000000    33.21000000    76.31000000
   O    111.17000000    34.25000000    76.29000000
   C    112.09000000    32.19000000    74.60000000
   C    112.55000000    30.92000000    73.89000000
   O    112.27000000    30.70000000    72.70000000
   O    113.33000000    30.16000000    74.51000000
   H    109.47000000    30.44000000    74.81000000
   H    111.21000000    31.26000000    76.24000000
   H    112.91000000    32.62000000    75.17000000
   H    111.79000000    32.94000000    73.86000000
   N    109.45000000    33.04000000    77.11000000
   C    109.01000000    34.05000000    78.05000000
   C    108.78000000    33.44000000    79.42000000
   O    107.83000000    32.66000000    79.49000000
   C    107.83000000    34.90000000    77.60000000
   C    108.07000000    35.58000000    76.25000000
   C    107.36000000    35.85000000    78.70000000
   C    106.76000000    35.89000000    75.53000000
   H    108.85000000    32.24000000    77.02000000
   H    109.83000000    34.76000000    78.20000000
   H    106.97000000    34.27000000    77.37000000
   H    108.56000000    34.92000000    75.54000000
   H    108.68000000    36.48000000    76.28000000
   H    106.78000000    35.38000000    79.49000000
   H    108.27000000    36.22000000    79.18000000
   H    106.96000000    36.76000000    78.26000000
   H    106.07000000    35.05000000    75.53000000
   H    106.37000000    36.74000000    76.08000000
   H    106.77000000    36.15000000    74.47000000
   N    109.63000000    33.64000000    80.43000000
   C    110.97000000    34.20000000    80.38000000
   C    112.11000000    33.41000000    79.76000000
   O    113.00000000    34.05000000    79.21000000
   C    111.41000000    34.70000000    81.75000000
   C    110.31000000    35.48000000    82.46000000
   O    109.31000000    34.94000000    82.98000000
   O    110.42000000    36.72000000    82.40000000
   H    109.41000000    33.30000000    81.36000000
   H    110.92000000    35.14000000    79.84000000
   H    112.25000000    35.35000000    81.54000000
   H    111.80000000    33.86000000    82.33000000
   N    112.08000000    32.07000000    79.77000000
   C    113.14000000    31.16000000    79.40000000
   C    114.53000000    31.62000000    79.84000000
   O    114.67000000    31.98000000    81.01000000
   H    111.27000000    31.70000000    80.26000000
   H    113.14000000    31.03000000    78.32000000
   H    112.85000000    30.25000000    79.93000000
   N    115.55000000    31.56000000    78.98000000
   C    116.87000000    32.12000000    79.16000000
   C    117.08000000    33.50000000    78.54000000
   O    117.85000000    34.34000000    78.99000000
   C    118.02000000    31.19000000    78.78000000
   C    117.65000000    30.34000000    77.58000000
   O    117.17000000    29.21000000    77.81000000
   O    117.86000000    30.83000000    76.45000000
   H    115.25000000    31.24000000    78.08000000
   H    116.97000000    32.31000000    80.23000000
   H    118.04000000    30.44000000    79.57000000
   H    118.97000000    31.73000000    78.71000000
   N    116.24000000    33.78000000    77.54000000
   C    116.10000000    35.07000000    76.88000000
   C    117.23000000    35.56000000    75.99000000
   O    117.10000000    36.72000000    75.60000000
   H    115.79000000    32.98000000    77.12000000
   H    115.76000000    35.85000000    77.56000000
   H    115.26000000    34.85000000    76.23000000
   N    118.15000000    34.67000000    75.63000000
   C    119.21000000    34.88000000    74.66000000
   C    118.72000000    35.39000000    73.31000000
   O    119.44000000    36.13000000    72.64000000
   C    120.29000000    35.75000000    75.30000000
   C    120.76000000    35.12000000    76.61000000
   C    122.01000000    35.82000000    77.14000000
   N    122.56000000    35.40000000    78.28000000
   O    122.64000000    36.68000000    76.53000000
   H    118.11000000    33.74000000    76.01000000
   H    119.56000000    33.87000000    74.42000000
   H    119.88000000    36.74000000    75.44000000
   H    121.19000000    35.71000000    74.69000000
   H    121.03000000    34.09000000    76.37000000
   H    120.00000000    35.21000000    77.38000000
   H    122.06000000    34.89000000    78.99000000
   H    123.34000000    35.98000000    78.56000000
   N    117.59000000    34.88000000    72.82000000
   C    116.86000000    35.47000000    71.72000000
   C    117.16000000    34.87000000    70.36000000
   O    117.47000000    33.68000000    70.31000000
   C    115.35000000    35.55000000    71.93000000
   C    114.64000000    34.20000000    71.84000000
   C    114.90000000    36.18000000    73.25000000
   H    117.04000000    34.26000000    73.40000000
   H    117.21000000    36.49000000    71.56000000
   H    114.98000000    36.26000000    71.18000000
   H    113.62000000    34.28000000    72.19000000
   H    114.53000000    33.97000000    70.78000000
   H    115.27000000    33.43000000    72.27000000
   H    115.10000000    37.25000000    73.32000000
   H    113.83000000    36.03000000    73.41000000
   H    115.40000000    35.68000000    74.07000000
   N    117.04000000    35.62000000    69.26000000
   C    117.03000000    35.11000000    67.90000000
   C    115.68000000    34.54000000    67.50000000
   O    114.68000000    34.90000000    68.12000000
   C    117.45000000    36.26000000    66.99000000
   C    117.96000000    35.74000000    65.65000000
   N    118.30000000    36.65000000    64.73000000
   O    118.24000000    34.56000000    65.46000000
   H    116.96000000    36.61000000    69.45000000
   H    117.75000000    34.29000000    67.78000000
   H    118.26000000    36.81000000    67.47000000
   H    116.69000000    37.03000000    66.89000000
   H    118.19000000    37.63000000    64.94000000
   H    118.95000000    36.32000000    64.03000000
   N    115.69000000    33.55000000    66.60000000
   C    114.67000000    32.56000000    66.33000000
   C    115.29000000    31.30000000    65.74000000
   O    116.51000000    31.26000000    65.59000000
   C    113.57000000    33.16000000    65.46000000
   C    113.98000000    33.21000000    64.01000000
   C    113.11000000    32.60000000    63.11000000
   C    115.09000000    33.96000000    63.59000000
   C    113.42000000    32.77000000    61.75000000
   C    115.41000000    34.08000000    62.23000000
   C    114.56000000    33.46000000    61.30000000
   O    114.76000000    33.73000000    59.97000000
   H    116.57000000    33.37000000    66.15000000
   H    114.27000000    32.34000000    67.31000000
   H    113.33000000    34.16000000    65.83000000
   H    112.72000000    32.50000000    65.59000000
   H    112.18000000    32.10000000    63.36000000
   H    115.68000000    34.50000000    64.31000000
   H    112.83000000    32.31000000    60.97000000
   H    116.20000000    34.78000000    62.00000000
   H    115.63000000    34.09000000    59.82000000
   N    114.48000000    30.25000000    65.59000000
   C    114.80000000    29.08000000    64.80000000
   C    113.71000000    28.57000000    63.88000000
   O    113.98000000    28.42000000    62.69000000
   C    115.31000000    27.92000000    65.65000000
   C    116.55000000    28.17000000    66.49000000
   C    117.12000000    26.82000000    66.91000000
   O    116.98000000    26.44000000    68.09000000
   O    117.51000000    26.05000000    66.01000000
   H    113.53000000    30.42000000    65.90000000
   H    115.63000000    29.44000000    64.19000000
   H    115.61000000    27.18000000    64.91000000
   H    114.62000000    27.50000000    66.39000000
   H    116.35000000    28.69000000    67.43000000
   H    117.29000000    28.72000000    65.90000000
   N    112.46000000    28.23000000    64.19000000
   C    111.56000000    28.60000000    65.26000000
   C    110.10000000    28.83000000    64.90000000
   O    109.64000000    28.25000000    63.92000000
   C    111.64000000    27.58000000    66.39000000
   C    111.28000000    26.17000000    65.95000000
   C    111.27000000    25.30000000    67.20000000
   O    112.18000000    24.47000000    67.38000000
   O    110.33000000    25.40000000    68.02000000
   H    112.01000000    27.78000000    63.40000000
   H    111.97000000    29.57000000    65.54000000
   H    111.00000000    27.89000000    67.21000000
   H    112.62000000    27.53000000    66.87000000
   H    112.09000000    25.75000000    65.34000000
   H    110.28000000    26.11000000    65.53000000
   N    109.38000000    29.57000000    65.75000000
   C    107.96000000    29.86000000    65.86000000
   H    107.40500000    28.92600000    65.94800000
   H    107.78100000    30.47300000    66.74300000
   H    107.62800000    30.39600000    64.97100000
   H    109.91000000    30.00000000    66.49000000
  Ca    111.40700000    28.32000000    72.09000000
   O    111.71700000    26.51000000    70.20000000
   H    111.17700000    26.15000000    69.50000000
   H    112.61700000    26.30000000    69.95000000
   O    110.29700000    29.34000000    69.86000000
   H    110.54700000    29.96000000    69.17000000
   H    109.53700000    28.88000000    69.50000000
   O    113.42700000    29.13000000    70.36000000
   H    114.31700000    28.86000000    70.55000000
   H    113.51700000    29.87000000    69.76000000
   O    112.25700000    25.56000000    73.39000000
   H    111.41700000    25.23000000    73.07000000
   H    112.90700000    25.01000000    72.94000000
   O    111.19700000    28.30000000    74.90000000
   H    112.09700000    28.32000000    75.23000000
   H    110.72700000    27.75000000    75.53000000
   O    113.78700000    27.87000000    73.34000000
   H    114.07700000    28.46000000    74.04000000
   H    113.90700000    27.00000000    73.71000000

Ca 1.00



