%chk=loop4.apoCaM-CA-Ng.Init31.run61.water3.chk
%nprocshared=20
%mem=10GB
%nosave
#b3lyp/svp scf=(tight,noincore,xqc) Test 
#IOP(5/87=12) Density=Current Pop=(MK,readradii) iop(6/33=2) iop(6/42=6)

loop4.apoCaM-CA-Ng.Init31.run61.water3 

   -3  1 
   C     91.92000000    51.12000000     4.97000000
   C     92.37000000    52.16000000     3.96000000
   O     91.68000000    53.18000000     3.84000000
   H     90.91000000    50.79000000     4.72600000
   H     92.59700000    50.26700000     4.94000000
   H     91.92800000    51.55600000     5.96900000
   N     93.45000000    51.99000000     3.19000000
   C     94.53000000    51.05000000     3.34000000
   C     95.64000000    51.39000000     4.32000000
   O     96.37000000    50.47000000     4.69000000
   C     95.21000000    50.69000000     2.02000000
   C     94.22000000    50.11000000     1.03000000
   O     93.46000000    50.87000000     0.39000000
   O     94.02000000    48.87000000     0.98000000
   H     93.64000000    52.78000000     2.58000000
   H     94.21000000    50.06000000     3.69000000
   H     95.91000000    49.88000000     2.26000000
   H     95.71000000    51.54000000     1.56000000
   N     95.80000000    52.64000000     4.76000000
   C     96.75000000    53.08000000     5.77000000
   C     98.18000000    52.86000000     5.29000000
   O     99.07000000    52.44000000     6.03000000
   C     96.37000000    54.54000000     6.00000000
   C     94.89000000    54.68000000     6.37000000
   C     97.22000000    55.25000000     7.04000000
   C     94.38000000    53.82000000     7.53000000
   H     95.16000000    53.32000000     4.39000000
   H     96.65000000    52.48000000     6.67000000
   H     96.52000000    55.00000000     5.02000000
   H     94.31000000    54.62000000     5.45000000
   H     94.73000000    55.72000000     6.65000000
   H     97.28000000    54.84000000     8.05000000
   H     98.27000000    55.38000000     6.78000000
   H     96.84000000    56.27000000     7.03000000
   H     93.39000000    54.16000000     7.83000000
   H     94.23000000    52.79000000     7.23000000
   H     95.04000000    54.00000000     8.38000000
   N     98.44000000    52.98000000     3.98000000
   C     99.74000000    52.87000000     3.36000000
   C     99.69000000    52.05000000     2.08000000
   O    100.60000000    52.19000000     1.26000000
   C    100.29000000    54.29000000     3.27000000
   C    101.77000000    54.35000000     2.90000000
   O    102.19000000    55.31000000     2.23000000
   O    102.52000000    53.42000000     3.28000000
   H     97.77000000    53.33000000     3.31000000
   H    100.37000000    52.32000000     4.06000000
   H    100.11000000    54.86000000     4.18000000
   H     99.70000000    54.93000000     2.60000000
   N     98.65000000    51.24000000     1.90000000
   C     98.50000000    50.47000000     0.68000000
   C     98.23000000    51.38000000    -0.51000000
   O     97.24000000    52.09000000    -0.63000000
   H     97.92000000    51.27000000     2.59000000
   H     97.68000000    49.78000000     0.82000000
   H     99.41000000    49.89000000     0.52000000
   N     99.12000000    51.33000000    -1.50000000
   C     99.15000000    52.15000000    -2.69000000
   C    100.58000000    52.41000000    -3.14000000
   O    101.36000000    51.47000000    -3.02000000
   C     98.19000000    51.57000000    -3.73000000
   C     98.66000000    50.25000000    -4.31000000
   O     98.24000000    49.23000000    -3.72000000
   O     99.23000000    50.24000000    -5.42000000
   H    100.02000000    50.91000000    -1.32000000
   H     98.73000000    53.10000000    -2.35000000
   H     98.16000000    52.28000000    -4.56000000
   H     97.17000000    51.63000000    -3.35000000
   N    101.02000000    53.58000000    -3.61000000
   C    100.28000000    54.82000000    -3.75000000
   C    101.20000000    56.04000000    -3.65000000
   O    102.17000000    55.98000000    -2.90000000
   H    102.02000000    53.71000000    -3.67000000
   H     99.57000000    54.87000000    -2.93000000
   H     99.72000000    54.87000000    -4.69000000
   N    101.02000000    57.13000000    -4.39000000
   C     99.93000000    57.50000000    -5.27000000
   C     98.58000000    57.52000000    -4.57000000
   O     98.52000000    57.23000000    -3.37000000
   C     99.93000000    56.76000000    -6.61000000
   C    101.27000000    56.84000000    -7.33000000
   C    101.20000000    56.59000000    -8.83000000
   N    102.26000000    56.42000000    -9.61000000
   O    100.11000000    56.81000000    -9.36000000
   H    101.70000000    57.87000000    -4.31000000
   H    100.16000000    58.53000000    -5.53000000
   H     99.18000000    57.25000000    -7.23000000
   H     99.69000000    55.70000000    -6.63000000
   H    101.99000000    56.19000000    -6.84000000
   H    101.71000000    57.82000000    -7.15000000
   H    103.22000000    56.38000000    -9.29000000
   H    102.00000000    56.16000000   -10.55000000
   N     97.51000000    57.91000000    -5.27000000
   C     96.13000000    57.71000000    -4.86000000
   C     95.24000000    58.94000000    -5.02000000
   O     95.53000000    59.83000000    -5.82000000
   C     95.45000000    56.53000000    -5.55000000
   C     95.95000000    55.18000000    -5.04000000
   C     95.54000000    56.54000000    -7.07000000
   H     97.63000000    58.40000000    -6.15000000
   H     96.14000000    57.54000000    -3.79000000
   H     94.42000000    56.64000000    -5.23000000
   H     96.23000000    55.18000000    -3.98000000
   H     95.13000000    54.47000000    -5.15000000
   H     96.75000000    54.72000000    -5.61000000
   H     96.38000000    57.11000000    -7.46000000
   H     95.57000000    55.52000000    -7.45000000
   H     94.61000000    56.97000000    -7.45000000
   N     94.20000000    59.07000000    -4.20000000
   C     93.30000000    60.20000000    -4.06000000
   C     91.98000000    60.22000000    -4.82000000
   O     91.46000000    61.29000000    -5.13000000
   C     93.09000000    60.38000000    -2.56000000
   C     92.42000000    61.68000000    -2.15000000
   N     91.12000000    61.65000000    -1.82000000
   O     93.03000000    62.74000000    -2.25000000
   H     94.22000000    58.39000000    -3.45000000
   H     93.85000000    61.09000000    -4.37000000
   H     94.06000000    60.53000000    -2.09000000
   H     92.54000000    59.55000000    -2.10000000
   H     90.56000000    60.82000000    -1.72000000
   H     90.77000000    62.56000000    -1.54000000
   N     91.53000000    59.01000000    -5.17000000
   C     90.32000000    58.62000000    -5.87000000
   C     90.04000000    57.16000000    -5.57000000
   O     90.91000000    56.45000000    -5.06000000
   C     90.31000000    58.88000000    -7.38000000
   C     91.41000000    58.44000000    -8.32000000
   C     91.56000000    57.11000000    -8.72000000
   C     92.29000000    59.39000000    -8.84000000
   C     92.46000000    56.73000000    -9.74000000
   C     93.28000000    59.01000000    -9.75000000
   C     93.38000000    57.68000000   -10.21000000
   O     94.27000000    57.30000000   -11.17000000
   H     92.01000000    58.18000000    -4.85000000
   H     89.49000000    59.19000000    -5.48000000
   H     90.21000000    59.96000000    -7.44000000
   H     89.35000000    58.51000000    -7.73000000
   H     91.01000000    56.30000000    -8.28000000
   H     92.18000000    60.42000000    -8.52000000
   H     92.48000000    55.67000000    -9.90000000
   H     93.99000000    59.78000000   -10.02000000
   H     93.94000000    56.54000000   -11.64000000
   N     88.92000000    56.57000000    -6.01000000
   C     88.68000000    55.14000000    -5.99000000
   C     87.89000000    54.81000000    -4.74000000
   O     86.88000000    55.44000000    -4.44000000
   C     87.78000000    54.79000000    -7.17000000
   C     87.48000000    53.30000000    -7.29000000
   C     86.64000000    53.09000000    -8.55000000
   O     85.42000000    53.36000000    -8.53000000
   O     87.09000000    52.41000000    -9.49000000
   H     88.10000000    57.08000000    -6.31000000
   H     89.58000000    54.52000000    -6.01000000
   H     88.39000000    55.21000000    -7.97000000
   H     86.83000000    55.30000000    -7.29000000
   H     86.83000000    52.97000000    -6.48000000
   H     88.37000000    52.71000000    -7.53000000
   N     88.24000000    53.84000000    -3.89000000
   C     87.58000000    53.43000000    -2.66000000
   C     87.79000000    54.51000000    -1.61000000
   O     87.06000000    54.49000000    -0.62000000
   C     88.19000000    52.11000000    -2.19000000
   C     89.71000000    52.14000000    -2.03000000
   C     90.21000000    50.73000000    -1.74000000
   O     89.55000000    49.96000000    -1.02000000
   O     91.36000000    50.36000000    -2.05000000
   H     89.06000000    53.30000000    -4.13000000
   H     86.51000000    53.26000000    -2.77000000
   H     87.94000000    51.32000000    -2.90000000
   H     87.64000000    51.97000000    -1.26000000
   H     89.89000000    52.93000000    -1.29000000
   H     90.13000000    52.50000000    -2.96000000
   N     88.76000000    55.38000000    -1.86000000
   C     89.40000000    56.19000000    -0.84000000
   H     90.30800000    56.63500000    -1.24700000
   H     88.72000000    56.98000000    -0.52300000
   H     89.65400000    55.56400000     0.01500000
   H     89.30000000    55.34000000    -2.72000000
  Ca     91.75000000    48.53000000    -0.42100000
   O     90.56000000    47.25000000    -2.53100000
   H     90.22000000    47.80000000    -3.23100000
   H     90.27000000    46.37000000    -2.75100000
   O     93.78000000    47.55000000    -1.85100000
   H     94.66000000    47.85000000    -1.65100000
   H     93.85000000    47.20000000    -2.74100000
   O     92.41000000    46.27000000     0.57000000
   H     91.96000000    45.46000000     0.83000000
   H     93.19000000    46.29000000     1.13000000

Ca 1.00



