%chk=loop2.apoCaM-CA-Ng.Init295.run45.water6.chk
%nprocshared=20
%mem=10GB
%nosave
#b3lyp/svp scf=(tight,noincore,xqc) Test 
#IOP(5/87=12) Density=Current Pop=(MK,readradii) iop(6/33=2) iop(6/42=6)

loop2.apoCaM-CA-Ng.Init295.run45.water6 

   -2  1 
   C     92.36000000    38.68000000    25.45000000
   C     93.84000000    38.36000000    25.27000000
   O     94.40000000    38.92000000    24.32000000
   H     91.78000000    37.76000000    25.38700000
   H     92.20300000    39.14100000    26.42500000
   H     92.03800000    39.36600000    24.66700000
   N     94.49000000    37.35000000    25.85000000
   C     95.89000000    37.07000000    25.57000000
   C     96.84000000    38.06000000    26.23000000
   O     97.80000000    37.66000000    26.89000000
   C     96.09000000    35.61000000    26.00000000
   C     97.31000000    34.91000000    25.43000000
   O     97.55000000    33.75000000    25.85000000
   O     98.02000000    35.43000000    24.54000000
   H     94.06000000    36.97000000    26.68000000
   H     96.07000000    37.13000000    24.50000000
   H     95.24000000    34.97000000    25.75000000
   H     96.11000000    35.62000000    27.09000000
   N     96.57000000    39.36000000    26.22000000
   C     97.43000000    40.42000000    26.70000000
   C     96.70000000    41.72000000    26.98000000
   O     95.55000000    41.97000000    26.63000000
   C     98.42000000    40.53000000    25.55000000
   H     95.75000000    39.67000000    25.71000000
   H     97.88000000    40.03000000    27.62000000
   H     99.17000000    41.29000000    25.80000000
   H     98.97000000    39.63000000    25.29000000
   H     97.81000000    40.86000000    24.71000000
   N     97.31000000    42.72000000    27.63000000
   C     98.66000000    42.80000000    28.16000000
   C     98.69000000    42.37000000    29.62000000
   O     97.69000000    42.15000000    30.29000000
   C     99.17000000    44.20000000    27.85000000
   C     99.26000000    44.58000000    26.38000000
   O     98.81000000    43.81000000    25.50000000
   O     99.52000000    45.74000000    25.99000000
   H     96.74000000    43.48000000    27.98000000
   H     99.30000000    42.10000000    27.63000000
   H    100.11000000    44.24000000    28.41000000
   H     98.47000000    44.88000000    28.33000000
   N     99.94000000    42.30000000    30.08000000
   C    100.19000000    42.18000000    31.50000000
   C    100.07000000    40.75000000    32.02000000
   O    100.13000000    39.78000000    31.27000000
   H    100.74000000    42.58000000    29.53000000
   H     99.55000000    42.89000000    32.02000000
   H    101.16000000    42.62000000    31.72000000
   N     99.76000000    40.50000000    33.30000000
   C     99.65000000    41.43000000    34.40000000
   C     98.25000000    42.01000000    34.60000000
   O     97.99000000    42.60000000    35.64000000
   C    100.14000000    40.70000000    35.65000000
   C    101.59000000    40.28000000    35.47000000
   N    102.54000000    41.05000000    36.01000000
   O    101.88000000    39.30000000    34.80000000
   H     99.69000000    39.53000000    33.56000000
   H    100.33000000    42.25000000    34.20000000
   H     99.50000000    39.92000000    36.05000000
   H    100.20000000    41.41000000    36.48000000
   H    102.27000000    41.77000000    36.66000000
   H    103.54000000    40.94000000    35.85000000
   N     97.32000000    41.79000000    33.68000000
   C     96.03000000    42.44000000    33.75000000
   C     95.88000000    43.91000000    33.35000000
   O     95.02000000    44.60000000    33.89000000
   H     97.58000000    41.39000000    32.79000000
   H     95.57000000    42.40000000    34.74000000
   H     95.37000000    41.90000000    33.07000000
   N     96.71000000    44.34000000    32.40000000
   C     96.88000000    45.71000000    31.96000000
   C     96.02000000    45.86000000    30.71000000
   O     96.42000000    45.48000000    29.62000000
   C     98.33000000    46.10000000    31.70000000
   C     98.46000000    47.59000000    31.37000000
   O     99.25000000    45.84000000    32.73000000
   H     97.31000000    43.67000000    31.94000000
   H     96.46000000    46.35000000    32.73000000
   H     98.73000000    45.46000000    30.91000000
   H    100.14000000    45.87000000    32.37000000
   H     98.18000000    47.78000000    30.34000000
   H     97.88000000    48.12000000    32.13000000
   H     99.51000000    47.87000000    31.41000000
   N     94.82000000    46.38000000    31.02000000
   C     93.74000000    46.52000000    30.08000000
   C     93.10000000    47.90000000    30.21000000
   O     93.08000000    48.54000000    31.26000000
   C     92.72000000    45.41000000    30.29000000
   C     93.23000000    43.98000000    30.15000000
   C     92.10000000    45.53000000    31.68000000
   C     93.59000000    43.58000000    28.72000000
   H     94.56000000    46.43000000    32.00000000
   H     94.16000000    46.49000000    29.07000000
   H     91.86000000    45.52000000    29.62000000
   H     92.42000000    43.33000000    30.47000000
   H     94.05000000    43.76000000    30.83000000
   H     91.41000000    44.68000000    31.76000000
   H     92.82000000    45.34000000    32.48000000
   H     91.65000000    46.52000000    31.76000000
   H     94.32000000    44.29000000    28.32000000
   H     94.02000000    42.58000000    28.74000000
   H     92.73000000    43.53000000    28.05000000
   N     92.44000000    48.33000000    29.13000000
   C     91.90000000    49.67000000    28.98000000
   C     90.46000000    49.74000000    28.51000000
   O     90.15000000    49.22000000    27.44000000
   C     92.77000000    50.64000000    28.19000000
   C     94.23000000    50.25000000    28.01000000
   O     95.09000000    50.97000000    28.55000000
   O     94.58000000    49.30000000    27.27000000
   H     92.63000000    47.82000000    28.28000000
   H     91.77000000    50.14000000    29.96000000
   H     92.63000000    51.66000000    28.55000000
   H     92.45000000    50.61000000    27.15000000
   N     89.60000000    50.59000000    29.07000000
   C     88.25000000    50.85000000    28.61000000
   C     87.48000000    49.54000000    28.54000000
   O     87.58000000    48.68000000    29.41000000
   C     87.60000000    51.88000000    29.53000000
   C     86.12000000    52.14000000    29.34000000
   C     85.21000000    51.19000000    29.80000000
   C     85.59000000    53.30000000    28.77000000
   C     83.82000000    51.33000000    29.66000000
   C     84.21000000    53.50000000    28.66000000
   C     83.32000000    52.53000000    29.12000000
   H     89.89000000    51.13000000    29.88000000
   H     88.31000000    51.44000000    27.70000000
   H     88.24000000    52.75000000    29.35000000
   H     87.73000000    51.53000000    30.55000000
   H     85.54000000    50.23000000    30.17000000
   H     86.25000000    54.10000000    28.46000000
   H     83.16000000    50.53000000    29.93000000
   H     83.78000000    54.33000000    28.12000000
   H     82.26000000    52.67000000    28.99000000
   N     86.69000000    49.31000000    27.49000000
   C     85.80000000    48.18000000    27.35000000
   C     86.46000000    46.83000000    27.15000000
   O     85.77000000    45.81000000    27.20000000
   C     84.96000000    48.45000000    26.10000000
   C     85.11000000    49.94000000    25.79000000
   C     86.48000000    50.25000000    26.41000000
   H     85.15000000    48.13000000    28.22000000
   H     85.35000000    47.92000000    25.23000000
   H     83.90000000    48.34000000    26.28000000
   H     85.05000000    50.05000000    24.71000000
   H     84.42000000    50.59000000    26.33000000
   H     87.34000000    50.16000000    25.74000000
   H     86.46000000    51.28000000    26.78000000
   N     87.77000000    46.78000000    26.90000000
   C     88.54000000    45.56000000    27.10000000
   C     88.21000000    44.72000000    28.33000000
   O     88.12000000    43.50000000    28.20000000
   C     90.05000000    45.80000000    27.08000000
   C     90.43000000    46.27000000    25.68000000
   C     91.92000000    46.56000000    25.51000000
   O     92.74000000    46.74000000    26.44000000
   O     92.32000000    46.84000000    24.36000000
   H     88.26000000    47.62000000    26.64000000
   H     88.21000000    44.90000000    26.30000000
   H     90.64000000    44.92000000    27.34000000
   H     90.31000000    46.56000000    27.81000000
   H     89.83000000    47.15000000    25.43000000
   H     90.21000000    45.45000000    25.00000000
   N     87.99000000    45.29000000    29.52000000
   C     87.57000000    44.70000000    30.77000000
   H     86.54600000    44.33900000    30.67500000
   H     88.22700000    43.86600000    31.01800000
   H     87.61900000    45.44900000    31.56000000
   H     88.07000000    46.29000000    29.54000000
  Ca     94.91000000    47.63000000    25.25000000
   O     94.80000000    44.80000000    25.35000000
   H     94.45000000    44.23000000    26.03000000
   H     95.49000000    44.28000000    24.94000000
   O     96.23000000    49.74000000    24.32000000
   H     97.08000000    49.79000000    23.88000000
   H     95.80000000    50.57000000    24.09000000
   O     97.62000000    47.20000000    24.80000000
   H     98.02000000    46.55000000    25.37000000
   H     98.37000000    47.65000000    24.39000000
   O     96.16000000    46.94000000    27.58000000
   H     96.24000000    46.34000000    28.32000000
   H     96.56000000    47.75000000    27.89000000
   O     95.19000000    46.82000000    22.69000000
   H     94.71000000    47.20000000    21.95000000
   H     95.70000000    46.11000000    22.29000000
   O     93.28000000    49.68000000    24.39000000
   H     93.76000000    50.50000000    24.29000000
   H     92.45000000    49.93000000    24.78000000

Ca 1.00



