%chk=loop4.apoCaM-CA-Ng.Init31.run29.water4.chk
%nprocshared=20
%mem=10GB
%nosave
#b3lyp/svp scf=(tight,noincore,xqc) Test 
#IOP(5/87=12) Density=Current Pop=(MK,readradii) iop(6/33=2) iop(6/42=6)

loop4.apoCaM-CA-Ng.Init31.run29.water4 

   -3  1 
   C     94.28000000    38.58000000    84.54000000
   C     95.67000000    38.13000000    84.96000000
   O     96.59000000    38.95000000    84.87000000
   H     93.61100000    38.53900000    85.39900000
   H     94.32600000    39.60200000    84.16400000
   H     93.90500000    37.92100000    83.75700000
   N     96.07000000    36.95000000    85.45000000
   C     95.33000000    35.78000000    85.90000000
   C     95.48000000    35.32000000    87.34000000
   O     95.03000000    34.26000000    87.77000000
   C     95.80000000    34.64000000    85.00000000
   C     95.71000000    35.07000000    83.54000000
   O     94.58000000    35.27000000    83.04000000
   O     96.72000000    35.05000000    82.81000000
   H     97.07000000    36.89000000    85.54000000
   H     94.27000000    35.99000000    85.74000000
   H     95.19000000    33.75000000    85.10000000
   H     96.80000000    34.38000000    85.36000000
   N     96.25000000    36.08000000    88.12000000
   C     96.67000000    35.71000000    89.46000000
   C     97.68000000    34.57000000    89.55000000
   O     97.61000000    33.85000000    90.55000000
   C     97.35000000    36.93000000    90.08000000
   C     97.70000000    36.69000000    91.54000000
   C     98.52000000    37.46000000    89.25000000
   C     98.04000000    37.92000000    92.39000000
   H     96.51000000    36.99000000    87.78000000
   H     95.75000000    35.41000000    89.96000000
   H     96.62000000    37.73000000    90.08000000
   H     98.52000000    35.98000000    91.59000000
   H     96.87000000    36.23000000    92.08000000
   H     99.43000000    36.89000000    89.40000000
   H     98.33000000    37.46000000    88.17000000
   H     98.79000000    38.45000000    89.60000000
   H     98.30000000    37.63000000    93.41000000
   H     98.92000000    38.34000000    91.92000000
   H     97.30000000    38.72000000    92.32000000
   N     98.61000000    34.46000000    88.61000000
   C     99.63000000    33.44000000    88.71000000
   C     99.93000000    32.97000000    87.29000000
   O     99.77000000    33.69000000    86.31000000
   C    100.82000000    33.95000000    89.50000000
   C    101.94000000    32.92000000    89.43000000
   O    103.02000000    33.36000000    88.99000000
   O    101.76000000    31.77000000    89.88000000
   H     98.59000000    35.03000000    87.77000000
   H     99.21000000    32.57000000    89.21000000
   H    100.48000000    34.13000000    90.52000000
   H    101.20000000    34.85000000    89.01000000
   N    100.44000000    31.73000000    87.29000000
   C    100.67000000    30.93000000    86.11000000
   C    102.07000000    31.07000000    85.53000000
   O    103.09000000    31.02000000    86.22000000
   H    100.67000000    31.36000000    88.20000000
   H     99.91000000    31.05000000    85.34000000
   H    100.57000000    29.87000000    86.39000000
   N    102.25000000    31.17000000    84.22000000
   C    103.52000000    31.23000000    83.53000000
   C    104.05000000    29.82000000    83.33000000
   O    103.32000000    28.84000000    83.13000000
   C    103.36000000    31.98000000    82.21000000
   C    102.45000000    31.32000000    81.18000000
   O    102.98000000    30.87000000    80.14000000
   O    101.22000000    31.29000000    81.41000000
   H    101.39000000    31.11000000    83.70000000
   H    104.15000000    31.81000000    84.21000000
   H    104.41000000    31.95000000    81.92000000
   H    103.04000000    33.01000000    82.41000000
   N    105.32000000    29.60000000    83.68000000
   C    106.37000000    30.58000000    83.90000000
   C    106.53000000    31.14000000    85.31000000
   O    105.98000000    30.60000000    86.26000000
   H    105.68000000    28.66000000    83.76000000
   H    106.25000000    31.46000000    83.27000000
   H    107.31000000    30.11000000    83.63000000
   N    107.46000000    32.08000000    85.51000000
   C    107.96000000    33.14000000    84.66000000
   C    106.90000000    34.12000000    84.20000000
   O    105.74000000    33.75000000    84.07000000
   C    108.76000000    32.71000000    83.42000000
   C    109.97000000    31.82000000    83.71000000
   C    111.10000000    32.35000000    84.58000000
   N    112.33000000    31.83000000    84.52000000
   O    110.94000000    33.27000000    85.37000000
   H    107.44000000    32.24000000    86.50000000
   H    108.68000000    33.72000000    85.24000000
   H    109.17000000    33.64000000    83.02000000
   H    108.21000000    32.27000000    82.60000000
   H    110.41000000    31.58000000    82.75000000
   H    109.53000000    30.94000000    84.18000000
   H    112.53000000    31.14000000    83.81000000
   H    113.04000000    32.12000000    85.17000000
   N    107.27000000    35.36000000    83.84000000
   C    106.44000000    36.32000000    83.14000000
   C    106.41000000    37.67000000    83.85000000
   O    107.47000000    38.15000000    84.24000000
   C    106.76000000    36.60000000    81.67000000
   C    106.74000000    35.26000000    80.93000000
   C    108.08000000    37.31000000    81.36000000
   H    108.23000000    35.61000000    84.03000000
   H    105.42000000    35.97000000    83.14000000
   H    105.96000000    37.18000000    81.22000000
   H    105.84000000    34.67000000    81.05000000
   H    106.90000000    35.43000000    79.87000000
   H    107.55000000    34.61000000    81.27000000
   H    108.80000000    36.85000000    82.03000000
   H    108.40000000    37.21000000    80.33000000
   H    107.92000000    38.37000000    81.60000000
   N    105.21000000    38.14000000    84.20000000
   C    104.96000000    39.43000000    84.80000000
   C    104.67000000    40.51000000    83.77000000
   O    104.92000000    41.69000000    84.02000000
   C    103.92000000    39.32000000    85.91000000
   C    104.42000000    38.31000000    86.93000000
   N    105.29000000    38.73000000    87.85000000
   O    104.11000000    37.12000000    86.97000000
   H    104.43000000    37.53000000    83.96000000
   H    105.92000000    39.69000000    85.25000000
   H    102.92000000    39.08000000    85.54000000
   H    103.79000000    40.33000000    86.30000000
   H    105.57000000    39.68000000    88.07000000
   H    105.55000000    38.01000000    88.50000000
   N    104.24000000    40.12000000    82.57000000
   C    104.35000000    41.00000000    81.42000000
   C    103.26000000    40.75000000    80.38000000
   O    102.67000000    39.68000000    80.28000000
   C    105.77000000    40.79000000    80.90000000
   C    106.13000000    41.50000000    79.62000000
   C    105.90000000    40.92000000    78.37000000
   C    106.83000000    42.71000000    79.74000000
   C    106.29000000    41.62000000    77.22000000
   C    107.05000000    43.50000000    78.61000000
   C    106.75000000    42.94000000    77.36000000
   O    106.96000000    43.69000000    76.24000000
   H    103.77000000    39.24000000    82.42000000
   H    104.18000000    42.02000000    81.76000000
   H    105.87000000    39.75000000    80.59000000
   H    106.48000000    41.17000000    81.63000000
   H    105.45000000    39.94000000    78.36000000
   H    107.05000000    43.04000000    80.75000000
   H    106.13000000    41.25000000    76.22000000
   H    107.25000000    44.56000000    78.75000000
   H    106.57000000    43.23000000    75.49000000
   N    103.02000000    41.71000000    79.48000000
   C    101.95000000    41.52000000    78.52000000
   C    100.60000000    41.67000000    79.19000000
   O    100.28000000    42.59000000    79.93000000
   C    102.16000000    42.52000000    77.38000000
   C    101.14000000    42.46000000    76.25000000
   C    101.04000000    41.06000000    75.65000000
   O    100.53000000    40.15000000    76.34000000
   O    101.52000000    40.85000000    74.51000000
   H    103.50000000    42.60000000    79.54000000
   H    102.06000000    40.53000000    78.08000000
   H    103.19000000    42.39000000    77.06000000
   H    102.08000000    43.52000000    77.82000000
   H    101.41000000    43.20000000    75.50000000
   H    100.15000000    42.67000000    76.65000000
   N     99.73000000    40.67000000    79.00000000
   C     98.32000000    40.77000000    79.32000000
   C     98.01000000    40.59000000    80.80000000
   O     96.90000000    40.74000000    81.32000000
   C     97.46000000    39.86000000    78.46000000
   C     97.91000000    38.40000000    78.50000000
   C     96.88000000    37.45000000    77.90000000
   O     96.79000000    37.38000000    76.66000000
   O     95.90000000    37.07000000    78.58000000
   H     99.93000000    39.99000000    78.28000000
   H     97.98000000    41.77000000    79.05000000
   H     97.62000000    40.20000000    77.43000000
   H     96.39000000    39.85000000    78.68000000
   H     98.10000000    38.09000000    79.53000000
   H     98.84000000    38.28000000    77.95000000
   N     99.05000000    40.37000000    81.61000000
   C     99.10000000    40.44000000    83.05000000
   H     99.19700000    41.48100000    83.35900000
   H     98.18400000    40.02200000    83.46700000
   H     99.95700000    39.87200000    83.41200000
   H     99.95000000    40.19000000    81.18000000
  Ca     95.30000000    35.58000000    80.47000000
   O     96.65000000    37.85000000    81.52000000
   H     96.44000000    38.73000000    81.82000000
   H     97.43000000    37.61000000    82.01000000
   O     97.29000000    34.23000000    79.20000000
   H     98.01000000    33.63000000    79.41000000
   H     97.08000000    34.04000000    78.29000000
   O     94.05000000    34.09000000    78.52000000
   H     93.50000000    34.47000000    77.83000000
   H     93.83000000    33.16000000    78.51000000
   O     95.04000000    33.08000000    81.00000000
   H     94.43000000    32.56000000    80.48000000
   H     95.40000000    32.46000000    81.64000000

Ca 1.00



