%chk=loop3.holoCaM.run4.water2.chk
%nprocshared=20
%mem=10GB
%nosave
#b3lyp/svp scf=(tight,noincore,xqc) Test 
#IOP(5/87=12) Density=Current Pop=(MK,readradii) iop(6/33=2) iop(6/42=6)

loop3.holoCaM.run4.water2 

   0  1 
   C     30.76000000    30.56000000    46.40000000
   C     31.68000000    30.85000000    47.58000000
   O     31.19000000    30.69000000    48.70000000
   H     29.87500000    31.19300000    46.46600000
   H     31.28600000    30.76800000    45.46800000
   H     30.45900000    29.51300000    46.42200000
   N     32.85000000    31.47000000    47.40000000
   C     33.70000000    31.88000000    48.50000000
   C     33.28000000    33.22000000    49.08000000
   O     33.36000000    34.27000000    48.46000000
   C     35.15000000    31.90000000    48.05000000
   C     36.18000000    31.84000000    49.18000000
   O     35.80000000    31.92000000    50.37000000
   O     37.38000000    31.66000000    48.91000000
   H     33.19000000    31.57000000    46.46000000
   H     33.61000000    31.15000000    49.31000000
   H     35.34000000    32.71000000    47.35000000
   H     35.29000000    31.01000000    47.43000000
   N     32.67000000    33.19000000    50.27000000
   C     32.14000000    34.33000000    51.00000000
   C     33.14000000    35.21000000    51.72000000
   O     32.76000000    36.15000000    52.42000000
   C     31.07000000    33.81000000    51.96000000
   C     29.90000000    34.75000000    52.21000000
   C     28.98000000    34.19000000    53.29000000
   C     27.97000000    35.16000000    53.91000000
   N     28.46000000    36.06000000    54.97000000
   H     32.55000000    32.27000000    50.67000000
   H     31.57000000    35.02000000    50.37000000
   H     31.59000000    33.49000000    52.86000000
   H     30.65000000    32.90000000    51.52000000
   H     29.36000000    34.81000000    51.26000000
   H     30.16000000    35.73000000    52.59000000
   H     29.53000000    33.63000000    54.05000000
   H     28.41000000    33.45000000    52.72000000
   H     27.06000000    34.69000000    54.28000000
   H     27.72000000    35.84000000    53.10000000
   H     27.76000000    36.24000000    55.68000000
   H     29.28000000    35.69000000    55.44000000
   H     28.89000000    36.88000000    54.57000000
   N     34.44000000    34.98000000    51.53000000
   C     35.46000000    35.62000000    52.32000000
   C     36.85000000    35.58000000    51.69000000
   O     37.73000000    36.36000000    52.06000000
   C     35.57000000    34.97000000    53.69000000
   C     35.59000000    33.45000000    53.65000000
   O     34.55000000    32.77000000    53.81000000
   O     36.64000000    32.84000000    53.36000000
   H     34.69000000    34.19000000    50.95000000
   H     35.23000000    36.67000000    52.50000000
   H     34.70000000    35.24000000    54.28000000
   H     36.45000000    35.37000000    54.19000000
   N     37.13000000    34.71000000    50.72000000
   C     38.32000000    34.76000000    49.89000000
   C     39.52000000    34.04000000    50.48000000
   O     40.66000000    34.31000000    50.12000000
   H     36.38000000    34.05000000    50.53000000
   H     38.56000000    35.80000000    49.65000000
   H     38.10000000    34.12000000    49.04000000
   N     39.24000000    33.21000000    51.49000000
   C     40.25000000    32.39000000    52.15000000
   C     40.75000000    31.26000000    51.26000000
   O     41.83000000    30.71000000    51.47000000
   C     39.74000000    31.89000000    53.49000000
   C     38.77000000    30.71000000    53.46000000
   N     38.59000000    29.97000000    54.55000000
   O     38.09000000    30.50000000    52.46000000
   H     38.28000000    33.08000000    51.77000000
   H     41.15000000    32.94000000    52.39000000
   H     39.25000000    32.79000000    53.87000000
   H     40.60000000    31.61000000    54.10000000
   H     39.15000000    30.19000000    55.36000000
   H     37.93000000    29.21000000    54.59000000
   N     40.06000000    31.00000000    50.15000000
   C     40.52000000    30.14000000    49.08000000
   C     39.77000000    28.81000000    49.00000000
   O     40.24000000    27.87000000    48.36000000
   H     39.18000000    31.48000000    50.01000000
   H     41.54000000    29.78000000    49.22000000
   H     40.49000000    30.70000000    48.15000000
   N     38.57000000    28.74000000    49.58000000
   C     37.86000000    27.51000000    49.89000000
   C     36.42000000    27.81000000    50.28000000
   O     36.12000000    28.93000000    50.66000000
   C     38.44000000    26.72000000    51.06000000
   C     39.89000000    26.32000000    51.01000000
   C     40.89000000    27.17000000    51.51000000
   C     40.20000000    25.09000000    50.42000000
   C     42.23000000    26.75000000    51.47000000
   C     41.54000000    24.69000000    50.35000000
   C     42.56000000    25.50000000    50.90000000
   O     43.84000000    25.04000000    50.96000000
   H     38.27000000    29.54000000    50.10000000
   H     37.89000000    26.89000000    49.00000000
   H     37.84000000    25.88000000    51.41000000
   H     38.47000000    27.40000000    51.92000000
   H     40.63000000    28.15000000    51.86000000
   H     39.37000000    24.58000000    49.96000000
   H     42.94000000    27.45000000    51.86000000
   H     41.80000000    23.78000000    49.82000000
   H     43.97000000    24.21000000    50.49000000
   N     35.58000000    26.78000000    50.07000000
   C     34.14000000    26.78000000    50.02000000
   C     33.74000000    25.75000000    51.06000000
   O     34.31000000    24.66000000    51.02000000
   C     33.51000000    26.54000000    48.65000000
   C     33.80000000    27.61000000    47.60000000
   C     32.01000000    26.31000000    48.80000000
   C     33.52000000    27.12000000    46.18000000
   H     35.97000000    25.87000000    49.89000000
   H     33.83000000    27.78000000    50.32000000
   H     33.86000000    25.57000000    48.32000000
   H     34.81000000    28.02000000    47.64000000
   H     33.17000000    28.45000000    47.88000000
   H     31.67000000    25.55000000    49.51000000
   H     31.64000000    27.28000000    49.17000000
   H     31.54000000    26.12000000    47.84000000
   H     32.51000000    26.74000000    46.06000000
   H     33.71000000    27.99000000    45.55000000
   H     34.25000000    26.40000000    45.82000000
   N     32.84000000    26.19000000    51.94000000
   C     32.31000000    25.47000000    53.08000000
   C     30.82000000    25.16000000    52.99000000
   O     30.08000000    25.67000000    52.15000000
   C     32.65000000    26.12000000    54.42000000
   O     31.94000000    27.30000000    54.73000000
   H     32.63000000    27.18000000    51.95000000
   H     32.77000000    24.48000000    53.04000000
   H     33.70000000    26.37000000    54.27000000
   H     32.62000000    25.40000000    55.24000000
   H     32.38000000    28.03000000    54.29000000
   N     30.36000000    24.30000000    53.90000000
   C     28.97000000    23.88000000    53.87000000
   C     28.01000000    25.05000000    54.01000000
   O     27.02000000    25.07000000    53.28000000
   C     28.52000000    22.89000000    54.94000000
   H     31.01000000    23.83000000    54.50000000
   H     28.79000000    23.44000000    52.89000000
   H     29.19000000    22.03000000    54.92000000
   H     28.68000000    23.31000000    55.93000000
   H     27.52000000    22.47000000    54.81000000
   N     28.21000000    26.10000000    54.81000000
   C     27.40000000    27.28000000    55.03000000
   C     27.52000000    28.09000000    53.74000000
   O     26.55000000    28.78000000    53.44000000
   C     27.89000000    28.01000000    56.28000000
   H     29.03000000    26.01000000    55.40000000
   H     26.37000000    26.97000000    55.17000000
   H     28.95000000    27.88000000    56.51000000
   H     27.60000000    29.05000000    56.36000000
   H     27.36000000    27.43000000    57.03000000
   N     28.62000000    28.08000000    53.00000000
   C     28.86000000    28.96000000    51.87000000
   C     28.19000000    28.33000000    50.65000000
   O     27.74000000    29.18000000    49.88000000
   C     30.36000000    29.04000000    51.62000000
   C     30.92000000    29.95000000    52.72000000
   C     32.43000000    29.84000000    52.53000000
   O     33.07000000    30.44000000    51.64000000
   O     33.14000000    29.25000000    53.37000000
   H     29.35000000    27.48000000    53.34000000
   H     28.41000000    29.93000000    52.09000000
   H     30.50000000    29.63000000    50.72000000
   H     30.74000000    28.02000000    51.53000000
   H     30.73000000    29.68000000    53.76000000
   H     30.58000000    30.98000000    52.63000000
   N     28.13000000    27.01000000    50.52000000
   C     27.15000000    26.41000000    49.64000000
   H     26.28100000    27.06400000    49.56500000
   H     27.58600000    26.27100000    48.65100000
   H     26.84300000    25.44400000    50.04100000
   H     28.73000000    26.43000000    51.09000000
  Ca     35.41000000    30.61000000    52.63000000
   O     35.79000000    28.04000000    53.42000000
   H     36.34000000    27.35000000    53.80000000
   H     34.90000000    27.78000000    53.64000000
   O     35.70000000    30.28000000    55.48000000
   H     36.33000000    29.64000000    55.83000000
   H     34.94000000    30.21000000    56.06000000

Ca 1.00



