%chk=loop3.holoCaM-CaMKII.run44.water2.chk
%nprocshared=20
%mem=10GB
%nosave
#b3lyp/svp scf=(tight,noincore,xqc) Test 
#IOP(5/87=12) Density=Current Pop=(MK,readradii) iop(6/33=2) iop(6/42=6)

loop3.holoCaM-CaMKII.run44.water2 

   0  1 
   C      1.53600000    32.65000000    18.45600000
   C      2.21600000    33.21000000    19.70600000
   O      3.43600000    33.36000000    19.70600000
   H      0.63300000    33.22400000    18.24600000
   H      2.21700000    32.72200000    17.60800000
   H      1.27200000    31.60600000    18.62200000
   N      1.52600000    33.53000000    20.80600000
   C      2.16600000    33.88000000    22.05600000
   C      2.29600000    32.59000000    22.85600000
   O      1.31600000    32.09000000    23.41600000
   C      1.45600000    35.02000000    22.77600000
   C      1.85600000    35.26000000    24.22600000
   O      2.81600000    34.56000000    24.63600000
   O      1.14600000    35.99000000    24.93600000
   H      0.54600000    33.30000000    20.84600000
   H      3.14600000    34.29000000    21.81600000
   H      0.36600000    34.91000000    22.76600000
   H      1.63600000    35.94000000    22.22600000
   N      3.49600000    32.00000000    22.80600000
   C      3.70600000    30.64000000    23.26600000
   C      3.71600000    30.56000000    24.78600000
   O      3.96600000    29.48000000    25.32600000
   C      4.90600000    29.97000000    22.60600000
   C      4.60600000    29.83000000    21.11600000
   C      5.51600000    28.79000000    20.46600000
   C      5.31600000    28.51000000    18.97600000
   N      3.93600000    28.07000000    18.71600000
   H      4.23600000    32.49000000    22.31600000
   H      2.86600000    30.04000000    22.91600000
   H      4.96600000    28.96000000    23.00600000
   H      5.78600000    30.53000000    22.89600000
   H      4.56600000    30.76000000    20.55600000
   H      3.59600000    29.42000000    21.00600000
   H      5.30600000    27.83000000    20.93600000
   H      6.57600000    29.00000000    20.59600000
   H      5.98600000    27.70000000    18.67600000
   H      5.56600000    29.44000000    18.47600000
   H      3.56600000    27.46000000    19.42600000
   H      3.35600000    28.89000000    18.63600000
   H      3.88600000    27.62000000    17.81600000
   N      3.43600000    31.64000000    25.51600000
   C      3.38600000    31.51000000    26.95600000
   C      2.14600000    32.16000000    27.54600000
   O      1.80600000    31.91000000    28.70600000
   C      4.64600000    32.00000000    27.65600000
   C      5.04600000    33.35000000    27.08600000
   O      5.98600000    33.46000000    26.26600000
   O      4.39600000    34.35000000    27.46600000
   H      3.17600000    32.46000000    24.99600000
   H      3.29600000    30.48000000    27.31600000
   H      5.47600000    31.32000000    27.43600000
   H      4.42600000    32.06000000    28.72600000
   N      1.46600000    33.01000000    26.78600000
   C      0.18600000    33.56000000    27.17600000
   C      0.25600000    34.75000000    28.12600000
   O     -0.70400000    35.01000000    28.84600000
   H      2.01600000    33.42000000    26.03600000
   H     -0.43400000    32.75000000    27.55600000
   H     -0.30400000    33.91000000    26.26600000
   N      1.32600000    35.54000000    28.06600000
   C      1.48600000    36.84000000    28.69600000
   C      0.79600000    38.04000000    28.06600000
   O      0.77600000    39.15000000    28.57600000
   C      2.94600000    37.07000000    29.08600000
   C      3.93600000    37.66000000    28.09600000
   N      4.94600000    38.40000000    28.55600000
   O      3.89600000    37.43000000    26.89600000
   H      2.00600000    35.24000000    27.37600000
   H      0.98600000    36.79000000    29.66600000
   H      3.41600000    36.13000000    29.36600000
   H      2.97600000    37.65000000    30.01600000
   H      5.06600000    38.56000000    29.54600000
   H      5.63600000    38.70000000    27.87600000
   N      0.14600000    37.83000000    26.91600000
   C     -0.38400000    38.91000000    26.10600000
   C      0.65600000    39.57000000    25.21600000
   O      0.31600000    40.67000000    24.78600000
   H      0.29600000    36.92000000    26.50600000
   H     -0.96400000    39.60000000    26.71600000
   H     -1.12400000    38.49000000    25.43600000
   N      1.86600000    39.04000000    25.01600000
   C      2.78600000    39.61000000    24.04600000
   C      3.48600000    38.51000000    23.26600000
   O      3.89600000    37.50000000    23.83600000
   C      3.76600000    40.63000000    24.61600000
   C      3.12600000    41.66000000    25.51600000
   C      2.59600000    42.86000000    25.01600000
   C      3.21600000    41.51000000    26.90600000
   C      2.20600000    43.89000000    25.88600000
   C      2.65600000    42.44000000    27.78600000
   C      2.12600000    43.64000000    27.26600000
   O      1.76600000    44.59000000    28.16600000
   H      2.04600000    38.11000000    25.34600000
   H      2.24600000    40.17000000    23.28600000
   H      4.33600000    41.06000000    23.79600000
   H      4.58600000    40.12000000    25.13600000
   H      2.34600000    43.00000000    23.97600000
   H      3.62600000    40.58000000    27.28600000
   H      1.78600000    44.82000000    25.54600000
   H      2.77600000    42.28000000    28.84600000
   H      1.31600000    45.32000000    27.73600000
   N      3.65600000    38.72000000    21.95600000
   C      4.56600000    37.99000000    21.10600000
   C      5.88600000    38.74000000    20.97600000
   O      5.91600000    39.93000000    20.63600000
   C      3.98600000    37.74000000    19.71600000
   C      2.56600000    37.20000000    19.79600000
   C      4.83600000    36.64000000    19.08600000
   C      1.67600000    37.69000000    18.64600000
   H      3.28600000    39.51000000    21.45600000
   H      4.82600000    37.00000000    21.47600000
   H      3.98600000    38.70000000    19.18600000
   H      2.04600000    37.42000000    20.72600000
   H      2.51600000    36.11000000    19.74600000
   H      5.89600000    36.83000000    18.90600000
   H      4.66600000    35.70000000    19.60600000
   H      4.41600000    36.38000000    18.11600000
   H      1.50600000    38.77000000    18.71600000
   H      2.13600000    37.65000000    17.65600000
   H      0.75600000    37.11000000    18.63600000
   N      6.96600000    37.97000000    21.07600000
   C      8.34600000    38.34000000    20.82600000
   C      8.93600000    37.81000000    19.52600000
   O      8.40600000    36.86000000    18.94600000
   C      9.18600000    38.01000000    22.05600000
   O      9.19600000    36.63000000    22.37600000
   H      6.79600000    37.00000000    21.29600000
   H      8.31600000    39.42000000    20.72600000
   H      8.76600000    38.55000000    22.89600000
   H     10.19600000    38.39000000    21.98600000
   H      8.33600000    36.38000000    22.72600000
   N     10.10600000    38.25000000    19.05600000
   C     10.72600000    37.61000000    17.91600000
   C     11.11600000    36.14000000    17.99600000
   O     10.92600000    35.41000000    17.01600000
   C     11.94600000    38.41000000    17.46600000
   H     10.59600000    39.08000000    19.36600000
   H     10.05600000    37.61000000    17.05600000
   H     11.58600000    39.42000000    17.32600000
   H     12.72600000    38.43000000    18.23600000
   H     12.23600000    38.15000000    16.44600000
   N     11.48600000    35.68000000    19.18600000
   C     11.73600000    34.28000000    19.43600000
   C     10.53600000    33.36000000    19.22600000
   O     10.59600000    32.45000000    18.40600000
   C     12.30600000    34.15000000    20.84600000
   H     11.28600000    36.28000000    19.97600000
   H     12.53600000    33.93000000    18.77600000
   H     11.69600000    34.74000000    21.53600000
   H     12.48600000    33.13000000    21.16600000
   H     13.27600000    34.64000000    20.96600000
   N      9.39600000    33.64000000    19.85600000
   C      8.12600000    32.96000000    19.67600000
   C      7.64600000    33.05000000    18.23600000
   O      7.18600000    32.03000000    17.72600000
   C      7.08600000    33.67000000    20.54600000
   C      7.36600000    33.34000000    22.00600000
   C      6.60600000    34.38000000    22.81600000
   O      5.37600000    34.20000000    22.97600000
   O      7.07600000    35.46000000    23.21600000
   H      9.28600000    34.49000000    20.38600000
   H      8.15600000    31.91000000    19.95600000
   H      6.08600000    33.36000000    20.24600000
   H      7.12600000    34.74000000    20.31600000
   H      8.39600000    33.47000000    22.31600000
   H      6.98600000    32.35000000    22.26600000
   N      7.83600000    34.18000000    17.55600000
   C      7.50600000    34.27000000    16.14600000
   H      6.68800000    34.97700000    16.00900000
   H      8.37800000    34.61200000    15.58900000
   H      7.20300000    33.28900000    15.78000000
   H      8.20600000    35.02000000    17.97600000
  Ca      5.12000000    35.57000000    25.10000000
   O      7.31000000    35.97000000    26.90000000
   H      7.83000000    35.40000000    27.46000000
   H      7.86000000    36.73000000    26.75000000
   O      6.44000000    37.94000000    24.86000000
   H      6.34000000    38.85000000    24.57000000
   H      6.83000000    38.02000000    25.73000000

Ca 1.00



