%chk=loop1.apoCaM-CA-Ng.Init31.run15.water6.chk
%nprocshared=20
%mem=10GB
%nosave
#b3lyp/svp scf=(tight,noincore,xqc) Test 
#IOP(5/87=12) Density=Current Pop=(MK,readradii) iop(6/33=2) iop(6/42=6)

loop1.apoCaM-CA-Ng.Init31.run15.water6 

   0  1 
   C     65.76000000    84.52000000    -9.44000000
   C     64.82000000    83.52000000   -10.10000000
   O     64.90000000    83.33000000   -11.31000000
   H     66.65900000    84.62800000   -10.04700000
   H     65.26200000    85.48600000    -9.35500000
   H     66.03300000    84.16200000    -8.44700000
   N     64.04000000    82.76000000    -9.33000000
   C     63.29000000    81.60000000    -9.76000000
   C     62.10000000    81.22000000    -8.89000000
   O     61.79000000    81.89000000    -7.91000000
   C     64.25000000    80.43000000    -9.90000000
   C     63.68000000    79.29000000   -10.73000000
   O     64.27000000    78.19000000   -10.86000000
   O     62.73000000    79.50000000   -11.51000000
   H     63.97000000    83.03000000    -8.36000000
   H     62.89000000    81.82000000   -10.76000000
   H     64.56000000    80.07000000    -8.92000000
   H     65.12000000    80.83000000   -10.43000000
   N     61.29000000    80.20000000    -9.20000000
   C     59.92000000    80.07000000    -8.74000000
   C     59.70000000    79.66000000    -7.29000000
   O     58.91000000    80.35000000    -6.66000000
   C     59.15000000    79.13000000    -9.66000000
   C     58.79000000    79.75000000   -11.01000000
   C     57.72000000    80.83000000   -10.86000000
   C     57.19000000    81.28000000   -12.22000000
   N     56.75000000    82.68000000   -12.29000000
   H     61.46000000    79.76000000   -10.09000000
   H     59.48000000    81.07000000    -8.79000000
   H     58.21000000    78.75000000    -9.25000000
   H     59.80000000    78.27000000    -9.83000000
   H     58.35000000    78.98000000   -11.63000000
   H     59.66000000    80.14000000   -11.55000000
   H     58.01000000    81.75000000   -10.36000000
   H     56.93000000    80.40000000   -10.25000000
   H     56.38000000    80.58000000   -12.43000000
   H     58.01000000    81.07000000   -12.89000000
   H     55.96000000    82.92000000   -11.71000000
   H     57.54000000    83.20000000   -11.93000000
   H     56.50000000    82.96000000   -13.23000000
   N     60.48000000    78.73000000    -6.73000000
   C     61.20000000    77.65000000    -7.36000000
   C     62.50000000    77.47000000    -6.59000000
   O     62.45000000    77.44000000    -5.37000000
   C     60.35000000    76.39000000    -7.39000000
   C     60.85000000    75.21000000    -8.21000000
   O     61.96000000    74.69000000    -7.94000000
   O     60.39000000    74.82000000    -9.30000000
   H     60.22000000    78.44000000    -5.79000000
   H     61.49000000    77.94000000    -8.37000000
   H     59.36000000    76.66000000    -7.75000000
   H     60.14000000    76.00000000    -6.39000000
   N     63.66000000    77.27000000    -7.24000000
   C     64.80000000    76.76000000    -6.51000000
   C     65.78000000    76.11000000    -7.48000000
   O     66.12000000    76.59000000    -8.56000000
   H     63.73000000    77.23000000    -8.24000000
   H     64.56000000    76.01000000    -5.76000000
   H     65.36000000    77.57000000    -6.04000000
   N     66.33000000    74.98000000    -7.03000000
   C     67.33000000    74.20000000    -7.74000000
   C     68.34000000    73.52000000    -6.83000000
   O     67.97000000    72.88000000    -5.85000000
   C     66.82000000    73.21000000    -8.78000000
   C     65.67000000    72.37000000    -8.25000000
   O     64.52000000    72.77000000    -8.52000000
   O     65.86000000    71.27000000    -7.68000000
   H     66.01000000    74.70000000    -6.11000000
   H     67.88000000    74.89000000    -8.39000000
   H     67.64000000    72.51000000    -8.96000000
   H     66.51000000    73.73000000    -9.69000000
   N     69.66000000    73.70000000    -6.96000000
   C     70.37000000    74.50000000    -7.94000000
   C     70.63000000    74.01000000    -9.36000000
   O     70.99000000    74.87000000   -10.16000000
   H     70.26000000    73.03000000    -6.51000000
   H     71.32000000    74.69000000    -7.43000000
   H     69.91000000    75.47000000    -8.09000000
   N     70.58000000    72.72000000    -9.69000000
   C     71.05000000    72.18000000   -10.95000000
   C     72.54000000    72.31000000   -11.23000000
   O     72.98000000    72.99000000   -12.16000000
   C     70.24000000    72.72000000   -12.12000000
   C     68.75000000    72.52000000   -11.90000000
   O     70.63000000    72.04000000   -13.29000000
   H     70.30000000    72.10000000    -8.94000000
   H     70.92000000    71.09000000   -10.95000000
   H     70.53000000    73.77000000   -12.15000000
   H     71.31000000    72.53000000   -13.78000000
   H     68.54000000    71.54000000   -11.48000000
   H     68.37000000    73.28000000   -11.22000000
   H     68.30000000    72.40000000   -12.89000000
   N     73.35000000    71.69000000   -10.37000000
   C     74.79000000    71.60000000   -10.28000000
   C     75.51000000    71.04000000   -11.50000000
   O     76.48000000    70.30000000   -11.33000000
   C     75.38000000    72.84000000    -9.61000000
   C     74.94000000    72.98000000    -8.16000000
   C     76.90000000    72.82000000    -9.50000000
   C     74.98000000    74.40000000    -7.59000000
   H     72.80000000    71.33000000    -9.60000000
   H     74.85000000    70.84000000    -9.50000000
   H     75.08000000    73.78000000   -10.09000000
   H     75.63000000    72.39000000    -7.54000000
   H     73.91000000    72.65000000    -8.04000000
   H     77.21000000    73.67000000    -8.90000000
   H     77.25000000    71.82000000    -9.23000000
   H     77.25000000    73.13000000   -10.48000000
   H     76.00000000    74.72000000    -7.37000000
   H     74.46000000    75.16000000    -8.17000000
   H     74.67000000    74.42000000    -6.55000000
   N     75.13000000    71.39000000   -12.73000000
   C     75.54000000    70.81000000   -13.99000000
   C     75.78000000    71.83000000   -15.09000000
   O     75.11000000    72.86000000   -15.10000000
   C     74.58000000    69.74000000   -14.50000000
   C     73.12000000    70.14000000   -14.65000000
   O     74.65000000    68.52000000   -13.81000000
   H     74.37000000    72.03000000   -12.90000000
   H     76.49000000    70.27000000   -13.89000000
   H     74.82000000    69.52000000   -15.54000000
   H     74.15000000    67.82000000   -14.24000000
   H     72.55000000    69.32000000   -15.09000000
   H     72.79000000    70.38000000   -13.63000000
   H     73.08000000    71.06000000   -15.24000000
   N     76.83000000    71.66000000   -15.90000000
   C     77.47000000    72.65000000   -16.74000000
   C     76.51000000    73.39000000   -17.66000000
   O     75.70000000    72.75000000   -18.32000000
   C     78.68000000    72.12000000   -17.51000000
   C     79.88000000    71.94000000   -16.60000000
   O     78.45000000    70.93000000   -18.23000000
   H     77.34000000    70.79000000   -15.87000000
   H     77.87000000    73.42000000   -16.07000000
   H     79.03000000    72.95000000   -18.13000000
   H     78.07000000    71.18000000   -19.08000000
   H     80.72000000    71.46000000   -17.11000000
   H     80.15000000    72.88000000   -16.13000000
   H     79.71000000    71.22000000   -15.79000000
   N     76.59000000    74.73000000   -17.68000000
   C     75.81000000    75.58000000   -18.55000000
   C     74.30000000    75.46000000   -18.35000000
   O     73.54000000    75.55000000   -19.32000000
   C     76.27000000    75.38000000   -19.99000000
   C     77.74000000    75.81000000   -20.10000000
   C     78.18000000    75.98000000   -21.55000000
   C     77.76000000    74.82000000   -22.46000000
   N     78.33000000    73.51000000   -22.11000000
   H     77.45000000    75.10000000   -17.33000000
   H     76.01000000    76.58000000   -18.17000000
   H     75.76000000    76.10000000   -20.63000000
   H     76.06000000    74.42000000   -20.45000000
   H     78.31000000    74.99000000   -19.65000000
   H     77.90000000    76.74000000   -19.56000000
   H     79.26000000    75.97000000   -21.45000000
   H     77.93000000    76.96000000   -21.97000000
   H     78.25000000    75.06000000   -23.40000000
   H     76.69000000    74.83000000   -22.62000000
   H     77.99000000    73.13000000   -21.24000000
   H     77.93000000    72.98000000   -22.87000000
   H     79.34000000    73.57000000   -22.15000000
   N     73.88000000    75.20000000   -17.12000000
   C     72.54000000    75.29000000   -16.56000000
   C     72.28000000    74.87000000   -15.12000000
   O     71.27000000    74.20000000   -14.92000000
   C     72.06000000    76.71000000   -16.85000000
   C     70.79000000    77.22000000   -16.18000000
   C     70.29000000    78.47000000   -16.90000000
   O     69.46000000    78.47000000   -17.83000000
   O     70.89000000    79.53000000   -16.65000000
   H     74.64000000    75.07000000   -16.47000000
   H     71.81000000    74.64000000   -17.04000000
   H     71.99000000    76.89000000   -17.92000000
   H     72.84000000    77.31000000   -16.39000000
   H     71.06000000    77.34000000   -15.13000000
   H     69.99000000    76.51000000   -16.41000000
   N     73.09000000    75.17000000   -14.11000000
   C     74.39000000    75.82000000   -14.01000000
   H     75.11100000    75.28700000   -14.63000000
   H     74.30900000    76.85100000   -14.35300000
   H     74.72500000    75.80700000   -12.97300000
   H     72.66000000    75.02000000   -13.21000000
  Ca     62.59000000    73.39000000   -10.04700000
   O     64.38000000    72.64000000   -12.00700000
   H     64.85000000    73.40000000   -12.34700000
   H     64.77000000    71.89000000   -12.45700000
   O     60.88000000    72.24000000   -12.10700000
   H     60.15000000    71.66000000   -11.93700000
   H     61.41000000    71.78000000   -12.76700000
   O     63.29000000    70.70000000   -10.10700000
   H     64.11000000    70.50000000    -9.65700000
   H     62.94000000    69.85000000   -10.36700000
   O     62.00000000    75.18000000   -11.84700000
   H     62.64000000    75.84000000   -12.11700000
   H     61.16000000    75.64000000   -11.86700000
   O     63.94000000    75.68000000   -10.00700000
   H     64.86000000    75.53000000    -9.81700000
   H     63.92000000    76.54000000   -10.42700000
   O     60.53000000    71.92000000    -8.84700000
   H     59.91000000    72.31000000    -8.22700000
   H     60.34000000    70.98000000    -8.82700000

Ca 1.00



