%chk=loop3.holoCaM.run54.water2.chk
%nprocshared=20
%mem=10GB
%nosave
#b3lyp/svp scf=(tight,noincore,xqc) Test 
#IOP(5/87=12) Density=Current Pop=(MK,readradii) iop(6/33=2) iop(6/42=6)

loop3.holoCaM.run54.water2 

   0  1 
   C     68.61000000    49.32000000    -2.13500000
   C     69.13000000    49.93000000    -0.84500000
   O     69.25000000    49.21000000     0.14500000
   H     67.72300000    49.86300000    -2.46100000
   H     69.37900000    49.38600000    -2.90500000
   H     68.35400000    48.27400000    -1.96600000
   N     69.45000000    51.23000000    -0.82500000
   C     69.68000000    51.95000000     0.40500000
   C     68.42000000    52.02000000     1.25500000
   O     67.42000000    52.69000000     1.01500000
   C     70.22000000    53.34000000     0.09500000
   C     70.60000000    54.10000000     1.36500000
   O     70.99000000    55.28000000     1.20500000
   O     70.70000000    53.53000000     2.46500000
   H     69.36000000    51.80000000    -1.65500000
   H     70.43000000    51.37000000     0.95500000
   H     69.52000000    53.88000000    -0.54500000
   H     71.13000000    53.29000000    -0.49500000
   N     68.54000000    51.53000000     2.49500000
   C     67.40000000    51.14000000     3.30500000
   C     67.12000000    52.17000000     4.38500000
   O     65.96000000    52.47000000     4.63500000
   C     67.64000000    49.74000000     3.88500000
   C     67.60000000    48.56000000     2.91500000
   C     66.41000000    48.42000000     1.96500000
   C     66.61000000    47.21000000     1.05500000
   N     65.52000000    47.12000000     0.06500000
   H     69.45000000    51.12000000     2.62500000
   H     66.48000000    51.12000000     2.72500000
   H     66.94000000    49.63000000     4.70500000
   H     68.62000000    49.79000000     4.36500000
   H     67.75000000    47.63000000     3.44500000
   H     68.52000000    48.62000000     2.33500000
   H     66.23000000    49.35000000     1.43500000
   H     65.51000000    48.24000000     2.55500000
   H     66.65000000    46.30000000     1.64500000
   H     67.56000000    47.23000000     0.52500000
   H     65.72000000    46.29000000    -0.48500000
   H     64.62000000    47.00000000     0.49500000
   H     65.38000000    47.98000000    -0.43500000
   N     68.10000000    52.92000000     4.90500000
   C     67.89000000    54.07000000     5.76500000
   C     68.13000000    55.39000000     5.04500000
   O     68.08000000    56.44000000     5.69500000
   C     68.77000000    53.88000000     6.99500000
   C     70.27000000    53.68000000     6.82500000
   O     71.08000000    53.85000000     7.76500000
   O     70.71000000    53.47000000     5.67500000
   H     69.03000000    52.73000000     4.57500000
   H     66.85000000    54.23000000     6.03500000
   H     68.35000000    52.98000000     7.44500000
   H     68.55000000    54.73000000     7.64500000
   N     68.32000000    55.37000000     3.72500000
   C     68.44000000    56.61000000     2.98500000
   C     69.69000000    57.45000000     3.18500000
   O     69.65000000    58.62000000     2.82500000
   H     68.34000000    54.52000000     3.18500000
   H     67.60000000    57.30000000     3.09500000
   H     68.46000000    56.31000000     1.93500000
   N     70.73000000    56.97000000     3.87500000
   C     71.93000000    57.67000000     4.27500000
   C     72.81000000    58.01000000     3.08500000
   O     73.75000000    58.77000000     3.31500000
   C     72.55000000    56.92000000     5.45500000
   C     73.48000000    55.80000000     5.01500000
   N     74.70000000    55.81000000     5.55500000
   O     73.00000000    54.97000000     4.23500000
   H     70.60000000    56.01000000     4.17500000
   H     71.69000000    58.69000000     4.57500000
   H     71.87000000    56.50000000     6.18500000
   H     73.16000000    57.70000000     5.90500000
   H     74.98000000    56.48000000     6.25500000
   H     75.25000000    54.97000000     5.42500000
   N     72.46000000    57.69000000     1.83500000
   C     73.30000000    58.09000000     0.72500000
   C     74.40000000    57.08000000     0.45500000
   O     75.28000000    57.37000000    -0.35500000
   H     71.61000000    57.21000000     1.57500000
   H     73.82000000    59.04000000     0.88500000
   H     72.62000000    58.11000000    -0.12500000
   N     74.42000000    55.96000000     1.18500000
   C     75.34000000    54.85000000     1.04500000
   C     74.67000000    53.48000000     1.14500000
   O     73.65000000    53.37000000     1.83500000
   C     76.42000000    54.90000000     2.12500000
   C     77.32000000    56.11000000     2.09500000
   C     77.07000000    57.17000000     2.97500000
   C     78.43000000    56.17000000     1.24500000
   C     77.89000000    58.30000000     3.00500000
   C     79.24000000    57.32000000     1.25500000
   C     79.00000000    58.38000000     2.14500000
   O     79.87000000    59.43000000     2.19500000
   H     73.62000000    55.73000000     1.75500000
   H     75.75000000    54.88000000     0.04500000
   H     77.04000000    54.03000000     1.89500000
   H     76.02000000    54.76000000     3.12500000
   H     76.30000000    57.06000000     3.72500000
   H     78.65000000    55.37000000     0.56500000
   H     77.82000000    58.96000000     3.85500000
   H     80.12000000    57.35000000     0.63500000
   H     80.43000000    59.42000000     1.41500000
   N     75.36000000    52.48000000     0.59500000
   C     75.07000000    51.07000000     0.56500000
   C     76.05000000    50.29000000     1.44500000
   O     77.25000000    50.36000000     1.22500000
   C     74.82000000    50.58000000    -0.86500000
   C     73.43000000    51.04000000    -1.29500000
   C     75.02000000    49.09000000    -1.09500000
   C     73.21000000    50.85000000    -2.79500000
   H     76.21000000    52.67000000     0.08500000
   H     74.08000000    50.98000000     0.99500000
   H     75.57000000    51.07000000    -1.48500000
   H     73.37000000    52.11000000    -1.13500000
   H     72.66000000    50.51000000    -0.74500000
   H     74.90000000    48.74000000    -2.11500000
   H     76.00000000    48.68000000    -0.82500000
   H     74.24000000    48.53000000    -0.57500000
   H     74.15000000    51.20000000    -3.23500000
   H     73.13000000    49.79000000    -3.01500000
   H     72.34000000    51.42000000    -3.12500000
   N     75.50000000    49.67000000     2.49500000
   C     76.30000000    48.82000000     3.34500000
   C     76.64000000    47.45000000     2.77500000
   O     76.16000000    47.00000000     1.74500000
   C     75.54000000    48.67000000     4.66500000
   O     74.49000000    47.75000000     4.52500000
   H     74.49000000    49.65000000     2.50500000
   H     77.24000000    49.28000000     3.64500000
   H     75.17000000    49.68000000     4.84500000
   H     76.25000000    48.30000000     5.41500000
   H     74.14000000    47.58000000     5.40500000
   N     77.41000000    46.63000000     3.49500000
   C     77.67000000    45.28000000     3.03500000
   C     76.53000000    44.29000000     3.19500000
   O     76.64000000    43.21000000     2.62500000
   C     78.94000000    44.82000000     3.74500000
   H     77.90000000    46.89000000     4.33500000
   H     77.92000000    45.32000000     1.97500000
   H     79.35000000    44.03000000     3.11500000
   H     79.73000000    45.56000000     3.53500000
   H     78.77000000    44.65000000     4.80500000
   N     75.45000000    44.73000000     3.85500000
   C     74.27000000    43.89000000     3.88500000
   C     73.19000000    44.39000000     2.93500000
   O     72.39000000    43.58000000     2.48500000
   C     73.71000000    43.75000000     5.29500000
   H     75.46000000    45.61000000     4.35500000
   H     74.43000000    42.84000000     3.65500000
   H     72.96000000    42.97000000     5.35500000
   H     74.48000000    43.54000000     6.04500000
   H     73.37000000    44.71000000     5.70500000
   N     73.20000000    45.67000000     2.53500000
   C     72.35000000    46.17000000     1.47500000
   C     72.78000000    45.76000000     0.07500000
   O     72.00000000    45.51000000    -0.83500000
   C     72.35000000    47.69000000     1.64500000
   C     71.50000000    48.28000000     2.77500000
   C     71.67000000    49.77000000     3.03500000
   O     70.84000000    50.47000000     3.63500000
   O     72.75000000    50.34000000     2.76500000
   H     73.79000000    46.32000000     3.03500000
   H     71.32000000    45.85000000     1.64500000
   H     72.06000000    48.08000000     0.66500000
   H     73.35000000    48.08000000     1.80500000
   H     71.79000000    47.78000000     3.69500000
   H     70.48000000    48.00000000     2.52500000
   N     74.09000000    45.55000000    -0.12500000
   C     74.63000000    45.20000000    -1.42500000
   H     75.64900000    44.83100000    -1.30700000
   H     74.01300000    44.42400000    -1.87800000
   H     74.63500000    46.08100000    -2.06600000
   H     74.69000000    45.89000000     0.60500000
  Ca     72.42000000    52.44000000     4.04000000
   O     73.24000000    51.62000000     6.46000000
   H     73.62000000    50.82000000     6.84000000
   H     73.49000000    52.32000000     7.07000000
   O     75.02000000    52.58000000     4.70000000
   H     75.93000000    52.30000000     4.57000000
   H     74.81000000    52.31000000     5.59000000

Ca 1.00



