%chk=loop1.holoCaM.run49.water2.chk
%nprocshared=20
%mem=10GB
%nosave
#b3lyp/svp scf=(tight,noincore,xqc) Test 
#IOP(5/87=12) Density=Current Pop=(MK,readradii) iop(6/33=2) iop(6/42=6)

loop1.holoCaM.run49.water2 

   0  1 
   C     62.52000000    82.50000000    -0.74000000
   C     61.31000000    81.88000000    -0.05000000
   O     60.79000000    80.83000000    -0.42000000
   H     63.37300000    81.82800000    -0.64900000
   H     62.29500000    82.66000000    -1.79400000
   H     62.75800000    83.45400000    -0.27000000
   N     60.76000000    82.52000000     0.99000000
   C     59.47000000    82.18000000     1.56000000
   C     58.36000000    82.65000000     0.63000000
   O     57.85000000    83.76000000     0.75000000
   C     59.31000000    82.64000000     3.00000000
   C     57.86000000    82.59000000     3.48000000
   O     57.47000000    83.45000000     4.30000000
   O     57.10000000    81.69000000     3.04000000
   H     61.24000000    83.35000000     1.31000000
   H     59.45000000    81.09000000     1.55000000
   H     59.69000000    83.66000000     2.97000000
   H     60.03000000    82.06000000     3.58000000
   N     57.93000000    81.83000000    -0.33000000
   C     57.38000000    82.35000000    -1.57000000
   C     55.88000000    82.55000000    -1.48000000
   O     55.38000000    83.35000000    -2.26000000
   C     57.63000000    81.36000000    -2.71000000
   C     57.58000000    82.02000000    -4.08000000
   C     57.79000000    81.16000000    -5.33000000
   C     57.49000000    81.87000000    -6.65000000
   N     56.99000000    80.99000000    -7.71000000
   H     58.27000000    80.88000000    -0.43000000
   H     57.80000000    83.31000000    -1.86000000
   H     56.76000000    80.70000000    -2.78000000
   H     58.56000000    80.80000000    -2.61000000
   H     58.28000000    82.85000000    -4.02000000
   H     56.55000000    82.33000000    -4.27000000
   H     57.11000000    80.31000000    -5.27000000
   H     58.78000000    80.71000000    -5.31000000
   H     58.37000000    82.43000000    -6.98000000
   H     56.83000000    82.71000000    -6.46000000
   H     56.73000000    81.49000000    -8.55000000
   H     57.70000000    80.30000000    -7.90000000
   H     56.14000000    80.49000000    -7.49000000
   N     55.16000000    81.93000000    -0.53000000
   C     53.77000000    82.18000000    -0.20000000
   C     53.63000000    83.21000000     0.91000000
   O     52.53000000    83.74000000     1.07000000
   C     53.05000000    80.87000000     0.11000000
   C     53.71000000    79.92000000     1.10000000
   O     53.50000000    78.69000000     1.00000000
   O     54.62000000    80.30000000     1.86000000
   H     55.61000000    81.28000000     0.09000000
   H     53.35000000    82.61000000    -1.10000000
   H     52.99000000    80.34000000    -0.84000000
   H     52.09000000    81.19000000     0.51000000
   N     54.66000000    83.48000000     1.72000000
   C     54.65000000    84.53000000     2.72000000
   C     53.94000000    84.09000000     3.99000000
   O     53.15000000    84.82000000     4.58000000
   H     55.47000000    82.96000000     1.39000000
   H     54.35000000    85.52000000     2.37000000
   H     55.67000000    84.67000000     3.08000000
   N     54.29000000    82.87000000     4.39000000
   C     53.78000000    82.33000000     5.64000000
   C     54.74000000    82.65000000     6.78000000
   O     54.34000000    82.32000000     7.90000000
   C     53.35000000    80.87000000     5.65000000
   C     54.35000000    79.77000000     5.32000000
   O     53.90000000    78.73000000     4.77000000
   O     55.59000000    79.94000000     5.32000000
   H     54.90000000    82.29000000     3.84000000
   H     52.91000000    82.89000000     5.99000000
   H     52.58000000    80.79000000     4.88000000
   H     52.79000000    80.68000000     6.57000000
   N     55.88000000    83.30000000     6.54000000
   C     56.92000000    83.51000000     7.53000000
   C     57.88000000    82.36000000     7.79000000
   O     58.62000000    82.45000000     8.77000000
   H     56.32000000    83.33000000     5.64000000
   H     56.39000000    83.79000000     8.43000000
   H     57.52000000    84.36000000     7.19000000
   N     57.95000000    81.30000000     6.98000000
   C     58.83000000    80.15000000     7.08000000
   C     59.21000000    79.59000000     5.71000000
   O     58.39000000    79.67000000     4.80000000
   C     58.12000000    79.03000000     7.83000000
   C     57.96000000    79.35000000     9.31000000
   O     56.82000000    78.73000000     7.37000000
   H     57.27000000    81.23000000     6.24000000
   H     59.79000000    80.46000000     7.50000000
   H     58.76000000    78.15000000     7.88000000
   H     56.56000000    79.49000000     6.85000000
   H     57.51000000    80.33000000     9.48000000
   H     57.27000000    78.70000000     9.84000000
   H     58.95000000    79.36000000     9.76000000
   N     60.34000000    78.89000000     5.65000000
   C     60.71000000    78.04000000     4.54000000
   C     60.47000000    76.55000000     4.71000000
   O     60.70000000    75.92000000     5.74000000
   C     62.14000000    78.36000000     4.12000000
   C     62.30000000    79.84000000     3.79000000
   C     62.62000000    77.36000000     3.08000000
   C     63.78000000    80.15000000     3.61000000
   H     60.88000000    78.86000000     6.51000000
   H     60.09000000    78.38000000     3.71000000
   H     62.74000000    78.11000000     4.99000000
   H     61.89000000    80.50000000     4.56000000
   H     61.69000000    79.99000000     2.90000000
   H     63.71000000    77.38000000     3.01000000
   H     62.42000000    76.30000000     3.21000000
   H     62.22000000    77.65000000     2.11000000
   H     63.85000000    81.24000000     3.65000000
   H     64.36000000    79.77000000     4.45000000
   H     64.08000000    79.77000000     2.63000000
   N     59.81000000    75.96000000     3.71000000
   C     59.48000000    74.55000000     3.63000000
   C     60.43000000    73.80000000     2.70000000
   O     61.23000000    74.43000000     2.01000000
   C     58.00000000    74.37000000     3.30000000
   C     57.55000000    74.64000000     1.87000000
   O     57.61000000    73.03000000     3.49000000
   H     59.60000000    76.56000000     2.92000000
   H     59.65000000    74.05000000     4.59000000
   H     57.38000000    75.03000000     3.92000000
   H     56.70000000    73.13000000     3.76000000
   H     58.03000000    74.00000000     1.14000000
   H     56.47000000    74.46000000     1.92000000
   H     57.76000000    75.68000000     1.61000000
   N     60.22000000    72.50000000     2.49000000
   C     61.02000000    71.60000000     1.69000000
   C     61.05000000    71.96000000     0.21000000
   O     62.10000000    71.86000000    -0.42000000
   C     60.47000000    70.17000000     1.71000000
   C     60.60000000    69.62000000     3.13000000
   O     59.10000000    70.26000000     1.40000000
   H     59.41000000    72.14000000     2.98000000
   H     62.05000000    71.66000000     2.03000000
   H     61.03000000    69.51000000     1.05000000
   H     58.82000000    69.56000000     0.81000000
   H     59.98000000    68.73000000     3.20000000
   H     61.67000000    69.42000000     3.21000000
   H     60.32000000    70.31000000     3.92000000
   N     59.89000000    72.30000000    -0.33000000
   C     59.57000000    72.69000000    -1.69000000
   C     60.28000000    73.97000000    -2.11000000
   O     61.00000000    74.06000000    -3.10000000
   C     58.05000000    72.73000000    -1.84000000
   C     57.38000000    71.38000000    -1.63000000
   C     55.97000000    71.26000000    -2.20000000
   C     55.19000000    70.12000000    -1.56000000
   N     55.86000000    68.83000000    -1.81000000
   H     59.08000000    72.31000000     0.27000000
   H     59.94000000    71.91000000    -2.35000000
   H     57.96000000    73.10000000    -2.86000000
   H     57.62000000    73.50000000    -1.21000000
   H     57.42000000    71.23000000    -0.55000000
   H     57.96000000    70.62000000    -2.14000000
   H     56.06000000    71.05000000    -3.27000000
   H     55.39000000    72.17000000    -2.07000000
   H     54.18000000    70.08000000    -1.96000000
   H     55.12000000    70.41000000    -0.51000000
   H     56.69000000    68.62000000    -1.28000000
   H     55.18000000    68.09000000    -1.75000000
   H     56.14000000    68.78000000    -2.78000000
   N     60.39000000    74.90000000    -1.15000000
   C     60.99000000    76.22000000    -1.20000000
   C     62.50000000    76.18000000    -1.01000000
   O     63.20000000    76.95000000    -1.67000000
   C     60.39000000    77.17000000    -0.16000000
   C     58.97000000    77.64000000    -0.48000000
   C     58.29000000    78.32000000     0.70000000
   O     58.61000000    78.08000000     1.88000000
   O     57.29000000    79.03000000     0.49000000
   H     59.93000000    74.71000000    -0.28000000
   H     60.77000000    76.63000000    -2.18000000
   H     61.02000000    78.05000000    -0.09000000
   H     60.47000000    76.70000000     0.82000000
   H     58.34000000    76.78000000    -0.73000000
   H     58.95000000    78.28000000    -1.36000000
   N     63.02000000    75.21000000    -0.25000000
   C     64.44000000    75.09000000     0.02000000
   H     64.95100000    75.99000000    -0.32100000
   H     64.59800000    74.96700000     1.09200000
   H     64.83900000    74.22400000    -0.50800000
   H     62.41000000    74.63000000     0.30000000
  Ca     56.47000000    79.13000000     3.00000000
   O     56.81000000    77.21000000     4.84000000
   H     55.99000000    76.73000000     4.85000000
   H     56.83000000    77.68000000     5.67000000
   O     55.12000000    76.87000000     2.22000000
   H     54.65000000    76.03000000     2.22000000
   H     54.60000000    77.42000000     1.62000000

Ca 1.00



