%chk=loop2.holoCaM-CaMKII.run25.water2.chk
%nprocshared=20
%mem=10GB
%nosave
#b3lyp/svp scf=(tight,noincore,xqc) Test 
#IOP(5/87=12) Density=Current Pop=(MK,readradii) iop(6/33=2) iop(6/42=6)

loop2.holoCaM-CaMKII.run25.water2 

   -2  1 
   C     80.58000000    60.66000000     7.85000000
   C     81.77000000    60.88000000     6.92000000
   O     82.72000000    61.53000000     7.35000000
   H     79.71100000    60.36300000     7.26300000
   H     80.81900000    59.87500000     8.56700000
   H     80.35900000    61.58500000     8.38300000
   N     81.80000000    60.23000000     5.75000000
   C     82.97000000    60.14000000     4.90000000
   C     83.13000000    61.37000000     4.02000000
   O     82.20000000    61.77000000     3.32000000
   C     82.87000000    58.92000000     3.99000000
   C     84.18000000    58.45000000     3.38000000
   O     85.28000000    59.00000000     3.59000000
   O     84.11000000    57.42000000     2.68000000
   H     81.00000000    59.66000000     5.53000000
   H     83.78000000    59.90000000     5.59000000
   H     82.18000000    59.15000000     3.17000000
   H     82.47000000    58.13000000     4.63000000
   N     84.38000000    61.82000000     3.88000000
   C     84.85000000    62.99000000     3.16000000
   C     86.04000000    62.69000000     2.26000000
   O     86.85000000    63.54000000     1.89000000
   C     85.02000000    64.20000000     4.07000000
   H     85.02000000    61.36000000     4.51000000
   H     84.01000000    63.21000000     2.49000000
   H     85.02000000    65.10000000     3.46000000
   H     84.17000000    64.25000000     4.76000000
   H     85.84000000    64.09000000     4.78000000
   N     86.20000000    61.42000000     1.90000000
   C     87.13000000    60.95000000     0.90000000
   C     86.96000000    59.58000000     0.27000000
   O     87.64000000    59.31000000    -0.72000000
   C     88.50000000    61.09000000     1.56000000
   C     88.64000000    60.32000000     2.86000000
   O     88.25000000    59.13000000     2.88000000
   O     88.93000000    60.91000000     3.92000000
   H     85.75000000    60.75000000     2.51000000
   H     87.01000000    61.66000000     0.08000000
   H     88.92000000    62.10000000     1.62000000
   H     89.26000000    60.61000000     0.94000000
   N     86.28000000    58.57000000     0.84000000
   C     86.19000000    57.20000000     0.37000000
   C     87.41000000    56.33000000     0.64000000
   O     87.62000000    55.28000000     0.04000000
   H     86.07000000    58.62000000     1.82000000
   H     86.03000000    57.24000000    -0.70000000
   H     85.35000000    56.74000000     0.88000000
   N     88.26000000    56.75000000     1.59000000
   C     89.46000000    56.04000000     1.98000000
   C     89.28000000    54.74000000     2.74000000
   O     90.26000000    54.05000000     3.03000000
   C     90.49000000    56.90000000     2.70000000
   C     90.08000000    57.42000000     4.07000000
   N     90.78000000    58.39000000     4.65000000
   O     89.15000000    56.98000000     4.75000000
   H     88.00000000    57.57000000     2.12000000
   H     90.01000000    55.71000000     1.10000000
   H     90.71000000    57.66000000     1.95000000
   H     91.29000000    56.17000000     2.80000000
   H     91.45000000    58.95000000     4.15000000
   H     90.47000000    58.64000000     5.59000000
   N     88.04000000    54.37000000     3.04000000
   C     87.66000000    53.13000000     3.69000000
   C     87.84000000    53.12000000     5.20000000
   O     87.50000000    52.13000000     5.85000000
   H     87.28000000    54.99000000     2.80000000
   H     88.29000000    52.33000000     3.29000000
   H     86.59000000    52.93000000     3.61000000
   N     88.24000000    54.24000000     5.81000000
   C     88.32000000    54.46000000     7.24000000
   C     87.68000000    55.76000000     7.71000000
   O     87.53000000    56.71000000     6.94000000
   C     89.73000000    54.57000000     7.80000000
   C     90.50000000    53.27000000     7.55000000
   O     90.36000000    55.58000000     7.05000000
   H     88.50000000    54.99000000     5.19000000
   H     87.85000000    53.61000000     7.74000000
   H     89.70000000    54.80000000     8.86000000
   H     89.83000000    55.90000000     6.32000000
   H     91.43000000    53.55000000     8.03000000
   H     90.01000000    52.57000000     8.22000000
   H     90.60000000    52.91000000     6.52000000
   N     87.31000000    55.83000000     8.99000000
   C     86.96000000    57.01000000     9.76000000
   C     88.28000000    57.71000000    10.04000000
   O     89.14000000    57.15000000    10.72000000
   C     86.02000000    56.89000000    10.96000000
   C     84.89000000    55.89000000    10.79000000
   C     85.53000000    58.26000000    11.41000000
   C     84.27000000    55.41000000    12.10000000
   H     87.44000000    54.97000000     9.49000000
   H     86.41000000    57.68000000     9.09000000
   H     86.66000000    56.50000000    11.75000000
   H     85.27000000    55.01000000    10.26000000
   H     84.09000000    56.34000000    10.19000000
   H     86.42000000    58.86000000    11.60000000
   H     85.08000000    58.85000000    10.61000000
   H     84.95000000    58.21000000    12.33000000
   H     84.87000000    54.68000000    12.64000000
   H     84.01000000    56.27000000    12.72000000
   H     83.30000000    54.94000000    11.92000000
   N     88.52000000    58.89000000     9.47000000
   C     89.55000000    59.78000000     9.97000000
   C     89.12000000    60.58000000    11.19000000
   O     87.93000000    60.69000000    11.49000000
   C     89.97000000    60.69000000     8.81000000
   C     90.25000000    59.96000000     7.50000000
   O     89.31000000    59.65000000     6.73000000
   O     91.45000000    59.85000000     7.17000000
   H     87.73000000    59.33000000     9.02000000
   H     90.40000000    59.19000000    10.30000000
   H     90.88000000    61.18000000     9.15000000
   H     89.24000000    61.49000000     8.70000000
   N     90.07000000    61.22000000    11.87000000
   C     89.70000000    61.94000000    13.07000000
   C     88.93000000    63.20000000    12.72000000
   O     87.97000000    63.47000000    13.43000000
   C     90.86000000    62.31000000    14.00000000
   C     90.48000000    62.99000000    15.30000000
   C     90.56000000    64.38000000    15.37000000
   C     90.10000000    62.26000000    16.43000000
   C     90.18000000    65.09000000    16.52000000
   C     89.78000000    62.94000000    17.61000000
   C     89.75000000    64.34000000    17.62000000
   H     91.04000000    61.13000000    11.60000000
   H     88.96000000    61.28000000    13.52000000
   H     91.49000000    62.95000000    13.39000000
   H     91.42000000    61.40000000    14.22000000
   H     90.95000000    64.91000000    14.51000000
   H     89.99000000    61.18000000    16.41000000
   H     90.19000000    66.16000000    16.59000000
   H     89.35000000    62.45000000    18.48000000
   H     89.31000000    64.85000000    18.45000000
   N     89.24000000    64.00000000    11.70000000
   C     88.28000000    65.01000000    11.31000000
   C     86.87000000    64.50000000    11.03000000
   O     85.92000000    65.28000000    11.10000000
   C     88.76000000    65.49000000     9.95000000
   C     90.28000000    65.37000000    10.06000000
   C     90.45000000    64.10000000    10.90000000
   H     88.32000000    65.82000000    12.05000000
   H     88.47000000    64.77000000     9.19000000
   H     88.53000000    66.52000000     9.66000000
   H     90.91000000    65.40000000     9.17000000
   H     90.65000000    66.23000000    10.61000000
   H     90.50000000    63.29000000    10.17000000
   H     91.31000000    64.07000000    11.56000000
   N     86.67000000    63.23000000    10.68000000
   C     85.39000000    62.59000000    10.45000000
   C     84.77000000    62.17000000    11.77000000
   O     83.55000000    62.17000000    11.94000000
   C     85.56000000    61.46000000     9.43000000
   C     86.15000000    61.93000000     8.10000000
   C     86.17000000    60.83000000     7.05000000
   O     86.16000000    61.06000000     5.83000000
   O     86.36000000    59.68000000     7.51000000
   H     87.51000000    62.66000000    10.63000000
   H     84.70000000    63.31000000    10.01000000
   H     84.56000000    61.06000000     9.25000000
   H     86.21000000    60.67000000     9.79000000
   H     87.20000000    62.14000000     8.28000000
   H     85.59000000    62.80000000     7.74000000
   N     85.63000000    61.87000000    12.74000000
   C     85.25000000    61.70000000    14.13000000
   H     84.21700000    61.35800000    14.18400000
   H     85.90200000    60.96200000    14.59800000
   H     85.34500000    62.65200000    14.65200000
   H     86.59000000    61.72000000    12.47000000
  Ca     87.33000000    58.81000000     5.26000000
   O     84.89000000    57.78000000     6.41000000
   H     84.06000000    57.37000000     6.66000000
   H     85.14000000    58.31000000     7.16000000
   O     86.30000000    56.54000000     4.04000000
   H     85.88000000    55.89000000     4.61000000
   H     85.57000000    56.97000000     3.59000000

Ca 1.00



