%chk=loop2.apoCaM-CA-Ng.Init293.run21.water6.chk
%nprocshared=20
%mem=10GB
%nosave
#b3lyp/svp scf=(tight,noincore,xqc) Test 
#IOP(5/87=12) Density=Current Pop=(MK,readradii) iop(6/33=2) iop(6/42=6)

loop2.apoCaM-CA-Ng.Init293.run21.water6 

   -2  1 
   C     63.78000000   -19.27000000    26.93000000
   C     63.45000000   -20.53000000    27.72000000
   O     63.69000000   -20.69000000    28.92000000
   H     64.78600000   -19.35300000    26.51800000
   H     63.06400000   -19.15200000    26.11700000
   H     63.72800000   -18.40300000    27.58900000
   N     63.05000000   -21.61000000    27.05000000
   C     62.85000000   -22.92000000    27.63000000
   C     64.14000000   -23.58000000    28.10000000
   O     64.12000000   -24.20000000    29.17000000
   C     62.17000000   -23.82000000    26.60000000
   C     62.03000000   -25.27000000    27.04000000
   O     61.14000000   -25.40000000    27.91000000
   O     62.62000000   -26.23000000    26.50000000
   H     62.99000000   -21.55000000    26.04000000
   H     62.20000000   -22.83000000    28.50000000
   H     62.74000000   -23.85000000    25.67000000
   H     61.19000000   -23.37000000    26.44000000
   N     65.29000000   -23.44000000    27.44000000
   C     66.64000000   -23.90000000    27.65000000
   C     67.27000000   -23.53000000    28.99000000
   O     68.21000000   -24.18000000    29.44000000
   C     66.88000000   -25.29000000    27.07000000
   H     65.11000000   -22.98000000    26.55000000
   H     67.19000000   -23.23000000    26.98000000
   H     66.45000000   -26.02000000    27.76000000
   H     66.46000000   -25.44000000    26.07000000
   H     67.92000000   -25.58000000    27.18000000
   N     66.69000000   -22.49000000    29.59000000
   C     67.24000000   -22.04000000    30.86000000
   C     67.02000000   -23.03000000    32.00000000
   O     67.77000000   -23.00000000    32.97000000
   C     68.66000000   -21.50000000    30.71000000
   C     68.89000000   -20.48000000    29.61000000
   O     70.10000000   -20.34000000    29.33000000
   O     67.97000000   -19.75000000    29.18000000
   H     65.91000000   -22.03000000    29.14000000
   H     66.59000000   -21.24000000    31.19000000
   H     69.33000000   -22.30000000    30.39000000
   H     68.89000000   -21.09000000    31.69000000
   N     65.95000000   -23.83000000    32.07000000
   C     65.46000000   -24.50000000    33.26000000
   C     65.04000000   -23.57000000    34.38000000
   O     64.78000000   -22.38000000    34.23000000
   H     65.43000000   -23.92000000    31.22000000
   H     66.20000000   -25.23000000    33.59000000
   H     64.56000000   -25.01000000    32.92000000
   N     65.12000000   -24.08000000    35.61000000
   C     64.91000000   -23.43000000    36.89000000
   C     63.58000000   -22.70000000    37.04000000
   O     63.61000000   -21.61000000    37.60000000
   C     66.13000000   -22.55000000    37.12000000
   C     66.29000000   -22.09000000    38.56000000
   N     67.24000000   -21.19000000    38.84000000
   O     65.61000000   -22.65000000    39.42000000
   H     65.47000000   -25.03000000    35.70000000
   H     64.85000000   -24.19000000    37.67000000
   H     66.17000000   -21.65000000    36.51000000
   H     67.03000000   -23.10000000    36.83000000
   H     67.82000000   -20.71000000    38.17000000
   H     67.23000000   -20.90000000    39.81000000
   N     62.47000000   -23.31000000    36.61000000
   C     61.15000000   -22.70000000    36.61000000
   C     60.84000000   -21.92000000    35.34000000
   O     59.65000000   -21.66000000    35.16000000
   H     62.56000000   -24.24000000    36.23000000
   H     61.30000000   -22.02000000    37.45000000
   H     60.32000000   -23.38000000    36.80000000
   N     61.78000000   -21.60000000    34.45000000
   C     61.58000000   -20.65000000    33.37000000
   C     61.74000000   -19.17000000    33.69000000
   O     62.72000000   -18.73000000    34.28000000
   C     62.40000000   -20.99000000    32.12000000
   C     62.34000000   -22.46000000    31.73000000
   O     61.96000000   -20.25000000    31.00000000
   H     62.72000000   -21.81000000    34.74000000
   H     60.56000000   -20.70000000    33.00000000
   H     63.45000000   -20.81000000    32.33000000
   H     62.60000000   -20.24000000    30.29000000
   H     62.59000000   -22.65000000    30.69000000
   H     63.00000000   -22.97000000    32.44000000
   H     61.37000000   -22.95000000    31.83000000
   N     60.92000000   -18.28000000    33.12000000
   C     61.22000000   -16.88000000    32.90000000
   C     62.60000000   -16.66000000    32.30000000
   O     62.99000000   -17.38000000    31.39000000
   C     60.10000000   -16.20000000    32.12000000
   C     59.96000000   -14.69000000    32.36000000
   C     60.15000000   -16.57000000    30.64000000
   C     58.79000000   -13.99000000    31.68000000
   H     60.11000000   -18.66000000    32.65000000
   H     61.19000000   -16.36000000    33.86000000
   H     59.16000000   -16.57000000    32.54000000
   H     60.80000000   -14.13000000    31.96000000
   H     59.90000000   -14.52000000    33.43000000
   H     59.15000000   -16.58000000    30.20000000
   H     60.93000000   -16.01000000    30.13000000
   H     60.40000000   -17.63000000    30.53000000
   H     57.87000000   -14.54000000    31.90000000
   H     58.56000000   -12.98000000    32.01000000
   H     59.00000000   -13.92000000    30.61000000
   N     63.26000000   -15.54000000    32.62000000
   C     64.46000000   -15.19000000    31.88000000
   C     65.50000000   -14.50000000    32.76000000
   O     66.31000000   -13.65000000    32.40000000
   C     64.05000000   -14.41000000    30.64000000
   C     65.13000000   -14.23000000    29.59000000
   O     66.07000000   -15.06000000    29.61000000
   O     65.06000000   -13.24000000    28.84000000
   H     62.80000000   -14.79000000    33.11000000
   H     64.87000000   -16.14000000    31.54000000
   H     63.63000000   -13.44000000    30.90000000
   H     63.23000000   -14.87000000    30.09000000
   N     65.41000000   -14.87000000    34.03000000
   C     66.39000000   -14.62000000    35.07000000
   C     66.09000000   -13.77000000    36.31000000
   O     67.04000000   -13.22000000    36.86000000
   C     67.05000000   -15.92000000    35.51000000
   C     66.27000000   -16.79000000    36.48000000
   C     65.25000000   -17.65000000    36.05000000
   C     66.62000000   -16.86000000    37.83000000
   C     64.56000000   -18.45000000    36.96000000
   C     66.02000000   -17.75000000    38.73000000
   C     64.95000000   -18.54000000    38.30000000
   H     64.61000000   -15.45000000    34.27000000
   H     67.21000000   -14.03000000    34.67000000
   H     68.03000000   -15.69000000    35.93000000
   H     67.32000000   -16.54000000    34.66000000
   H     64.90000000   -17.67000000    35.02000000
   H     67.31000000   -16.17000000    38.29000000
   H     63.86000000   -19.19000000    36.60000000
   H     66.32000000   -17.78000000    39.77000000
   H     64.50000000   -19.27000000    38.96000000
   N     64.87000000   -13.52000000    36.77000000
   C     63.66000000   -14.12000000    36.24000000
   C     63.08000000   -13.20000000    35.18000000
   O     62.14000000   -13.57000000    34.47000000
   C     62.73000000   -14.29000000    37.43000000
   C     63.04000000   -13.08000000    38.31000000
   C     64.51000000   -12.81000000    37.98000000
   H     63.86000000   -15.11000000    35.82000000
   H     61.65000000   -14.27000000    37.27000000
   H     63.03000000   -15.18000000    37.99000000
   H     62.39000000   -12.28000000    37.94000000
   H     62.99000000   -13.29000000    39.38000000
   H     64.56000000   -11.72000000    37.97000000
   H     65.03000000   -13.22000000    38.84000000
   N     63.46000000   -11.93000000    35.10000000
   C     62.77000000   -10.91000000    34.32000000
   C     63.01000000   -10.85000000    32.82000000
   O     64.12000000   -11.11000000    32.36000000
   C     62.95000000    -9.56000000    35.01000000
   C     62.71000000    -9.51000000    36.51000000
   C     62.70000000    -8.05000000    36.96000000
   O     63.72000000    -7.43000000    37.33000000
   O     61.61000000    -7.45000000    37.06000000
   H     64.19000000   -11.57000000    35.70000000
   H     61.70000000   -11.12000000    34.35000000
   H     62.22000000    -8.91000000    34.51000000
   H     63.99000000    -9.30000000    34.86000000
   H     63.56000000   -10.03000000    36.96000000
   H     61.74000000    -9.98000000    36.63000000
   N     61.93000000   -10.59000000    32.08000000
   C     61.98000000   -10.59000000    30.63000000
   H     62.92000000   -10.14800000    30.29900000
   H     61.91200000   -11.61400000    30.26400000
   H     61.14700000   -10.00700000    30.23700000
   H     60.99000000   -10.45000000    32.42000000
  Ca     67.28000000   -17.22800000    29.53000000
   O     64.89000000   -18.40800000    29.76000000
   H     64.21000000   -17.99800000    30.30000000
   H     64.53000000   -19.26800000    29.55000000
   O     69.91000000   -17.55800000    30.13000000
   H     70.27000000   -17.32800000    30.99000000
   H     70.61000000   -18.02800000    29.69000000
   O     69.02000000   -16.00800000    27.77000000
   H     69.80000000   -15.54800000    28.07000000
   H     69.26000000   -16.34800000    26.90000000
   O     66.37000000   -17.14800000    27.08000000
   H     66.51000000   -16.23800000    26.81000000
   H     66.15000000   -17.59800000    26.27000000
   O     68.15000000   -15.40800000    31.33000000
   H     67.50000000   -14.69800000    31.38000000
   H     68.95000000   -15.02800000    31.67000000
   O     67.17000000   -18.10800000    32.00000000
   H     66.46000000   -18.66800000    32.32000000
   H     67.94000000   -18.39800000    32.49000000

Ca 1.00



