%chk=loop2.apoCaM-CA-Ng.Init293.run94.water4.chk
%nprocshared=20
%mem=10GB
%nosave
#b3lyp/svp scf=(tight,noincore,xqc) Test 
#IOP(5/87=12) Density=Current Pop=(MK,readradii) iop(6/33=2) iop(6/42=6)

loop2.apoCaM-CA-Ng.Init293.run94.water4 

   -2  1 
   C     68.82000000    99.81000000    14.33000000
   C     68.52000000   101.27000000    14.04000000
   O     69.46000000   102.07000000    14.04000000
   H     69.74000000    99.73700000    14.91100000
   H     67.99700000    99.37500000    14.89700000
   H     68.94000000    99.27000000    13.39100000
   N     67.23000000   101.60000000    14.00000000
   C     66.77000000   102.95000000    13.74000000
   C     65.34000000   103.10000000    14.23000000
   O     65.10000000   103.72000000    15.27000000
   C     66.91000000   103.34000000    12.27000000
   C     67.35000000   104.79000000    12.16000000
   O     66.56000000   105.56000000    11.55000000
   O     68.47000000   105.19000000    12.54000000
   H     66.56000000   100.88000000    14.25000000
   H     67.32000000   103.70000000    14.32000000
   H     65.94000000   103.12000000    11.82000000
   H     67.62000000   102.73000000    11.70000000
   N     64.37000000   102.38000000    13.67000000
   C     62.95000000   102.39000000    13.96000000
   C     62.51000000   102.13000000    15.40000000
   O     61.48000000   102.63000000    15.86000000
   C     62.28000000   103.63000000    13.37000000
   H     64.66000000   101.85000000    12.85000000
   H     62.63000000   101.51000000    13.40000000
   H     62.45000000   104.50000000    14.00000000
   H     62.44000000   103.82000000    12.31000000
   H     61.22000000   103.50000000    13.59000000
   N     63.35000000   101.37000000    16.10000000
   C     63.28000000   101.21000000    17.54000000
   C     63.31000000   102.52000000    18.33000000
   O     62.63000000   102.65000000    19.34000000
   C     62.20000000   100.22000000    17.94000000
   C     62.33000000    98.81000000    17.39000000
   O     61.23000000    98.23000000    17.23000000
   O     63.43000000    98.29000000    17.12000000
   H     64.24000000   101.10000000    15.71000000
   H     64.16000000   100.67000000    17.90000000
   H     61.22000000   100.65000000    17.70000000
   H     62.21000000   100.19000000    19.03000000
   N     63.95000000   103.60000000    17.88000000
   C     64.15000000   104.77000000    18.71000000
   C     64.99000000   104.48000000    19.94000000
   O     66.02000000   103.80000000    19.92000000
   H     64.39000000   103.62000000    16.97000000
   H     63.17000000   105.10000000    19.07000000
   H     64.57000000   105.60000000    18.14000000
   N     64.62000000   105.09000000    21.07000000
   C     65.30000000   105.06000000    22.35000000
   C     66.81000000   105.05000000    22.23000000
   O     67.59000000   104.46000000    22.98000000
   C     64.80000000   103.91000000    23.23000000
   C     63.29000000   103.95000000    23.48000000
   N     62.52000000   103.04000000    22.87000000
   O     62.81000000   104.83000000    24.18000000
   H     63.68000000   105.45000000    21.11000000
   H     65.07000000   106.01000000    22.84000000
   H     65.30000000   104.03000000    24.19000000
   H     65.18000000   102.95000000    22.89000000
   H     62.89000000   102.35000000    22.23000000
   H     61.52000000   103.03000000    22.99000000
   N     67.33000000   105.95000000    21.39000000
   C     68.70000000   106.43000000    21.27000000
   C     69.63000000   105.34000000    20.76000000
   O     70.80000000   105.40000000    21.13000000
   H     66.64000000   106.42000000    20.83000000
   H     69.02000000   106.72000000    22.27000000
   H     68.64000000   107.35000000    20.70000000
   N     69.16000000   104.39000000    19.95000000
   C     69.99000000   103.53000000    19.13000000
   C     70.08000000   102.13000000    19.73000000
   O     69.24000000   101.79000000    20.57000000
   C     69.65000000   103.52000000    17.65000000
   C     68.28000000   102.90000000    17.40000000
   O     69.78000000   104.79000000    17.05000000
   H     68.17000000   104.24000000    19.79000000
   H     71.00000000   103.93000000    19.11000000
   H     70.33000000   102.86000000    17.11000000
   H     69.99000000   104.72000000    16.12000000
   H     67.79000000   102.35000000    18.20000000
   H     67.60000000   103.68000000    17.06000000
   H     68.30000000   102.14000000    16.62000000
   N     71.04000000   101.33000000    19.27000000
   C     71.22000000    99.94000000    19.63000000
   C     69.97000000    99.17000000    19.24000000
   O     69.30000000    99.51000000    18.27000000
   C     72.47000000    99.34000000    18.99000000
   C     72.67000000    99.67000000    17.52000000
   C     73.66000000    99.79000000    19.84000000
   C     73.56000000    98.70000000    16.75000000
   H     71.73000000   101.77000000    18.68000000
   H     71.40000000    99.90000000    20.70000000
   H     72.32000000    98.26000000    19.11000000
   H     73.11000000   100.67000000    17.48000000
   H     71.71000000    99.64000000    17.01000000
   H     73.58000000    99.39000000    20.85000000
   H     74.56000000    99.33000000    19.42000000
   H     73.77000000   100.87000000    19.84000000
   H     73.86000000    99.30000000    15.89000000
   H     74.45000000    98.39000000    17.30000000
   H     72.98000000    97.83000000    16.46000000
   N     69.60000000    98.13000000    19.99000000
   C     68.26000000    97.57000000    19.99000000
   C     67.80000000    97.19000000    21.38000000
   O     68.58000000    96.84000000    22.27000000
   C     68.15000000    96.41000000    19.00000000
   C     66.70000000    96.07000000    18.65000000
   O     65.83000000    96.97000000    18.72000000
   O     66.47000000    94.96000000    18.13000000
   H     70.24000000    97.96000000    20.76000000
   H     67.57000000    98.36000000    19.70000000
   H     68.63000000    95.51000000    19.38000000
   H     68.64000000    96.64000000    18.05000000
   N     66.49000000    97.08000000    21.61000000
   C     65.85000000    96.67000000    22.85000000
   C     64.98000000    97.81000000    23.34000000
   O     63.81000000    97.93000000    22.97000000
   C     65.07000000    95.41000000    22.46000000
   C     64.59000000    94.60000000    23.64000000
   C     65.53000000    93.71000000    24.19000000
   C     63.28000000    94.68000000    24.13000000
   C     65.11000000    92.87000000    25.23000000
   C     62.89000000    93.83000000    25.17000000
   C     63.81000000    92.96000000    25.76000000
   H     65.91000000    97.40000000    20.85000000
   H     66.54000000    96.34000000    23.63000000
   H     65.75000000    94.80000000    21.87000000
   H     64.29000000    95.62000000    21.73000000
   H     66.50000000    93.58000000    23.75000000
   H     62.48000000    95.25000000    23.68000000
   H     65.85000000    92.13000000    25.49000000
   H     61.84000000    93.82000000    25.43000000
   H     63.52000000    92.22000000    26.48000000
   N     65.42000000    98.58000000    24.33000000
   C     66.82000000    98.86000000    24.60000000
   C     67.42000000    97.81000000    25.52000000
   O     66.81000000    97.50000000    26.54000000
   C     66.85000000   100.15000000    25.42000000
   C     65.47000000   100.47000000    25.97000000
   C     64.64000000    99.43000000    25.22000000
   H     67.43000000    98.97000000    23.70000000
   H     67.69000000   100.19000000    26.12000000
   H     67.09000000   100.97000000    24.74000000
   H     65.48000000   100.38000000    27.05000000
   H     65.15000000   101.47000000    25.67000000
   H     64.16000000    98.79000000    25.96000000
   H     63.86000000    99.98000000    24.70000000
   N     68.53000000    97.15000000    25.17000000
   C     69.40000000    96.28000000    25.93000000
   C     70.76000000    96.22000000    25.23000000
   O     70.87000000    96.14000000    24.01000000
   C     68.79000000    94.89000000    26.09000000
   C     69.54000000    93.73000000    26.73000000
   C     69.00000000    92.32000000    26.54000000
   O     68.76000000    91.65000000    27.57000000
   O     68.91000000    91.88000000    25.37000000
   H     68.74000000    97.28000000    24.19000000
   H     69.61000000    96.70000000    26.91000000
   H     68.61000000    94.61000000    25.06000000
   H     67.79000000    95.06000000    26.51000000
   H     69.56000000    93.89000000    27.81000000
   H     70.55000000    93.64000000    26.36000000
   N     71.86000000    96.13000000    25.98000000
   C     73.24000000    96.19000000    25.54000000
   H     73.88100000    95.73100000    26.29300000
   H     73.34500000    95.65300000    24.59700000
   H     73.53300000    97.23100000    25.40000000
   H     71.71000000    96.17000000    26.98000000
  Ca     64.44000000    95.86000000    16.78000000
   O     61.70000000    95.58000000    16.39000000
   H     61.49000000    96.49000000    16.58000000
   H     60.87000000    95.11000000    16.50000000
   O     63.55000000    96.57000000    14.25000000
   H     63.46000000    95.70000000    13.87000000
   H     63.36000000    97.17000000    13.53000000
   O     63.79000000    93.16000000    17.21000000
   H     64.08000000    92.36000000    16.77000000
   H     63.72000000    92.90000000    18.13000000
   O     63.20000000    95.78000000    19.19000000
   H     62.28000000    95.72000000    19.47000000
   H     63.63000000    96.26000000    19.90000000

Ca 1.00



