%chk=loop3.holoCaM-CaMKII.run52.water3.chk
%nprocshared=20
%mem=10GB
%nosave
#b3lyp/svp scf=(tight,noincore,xqc) Test 
#IOP(5/87=12) Density=Current Pop=(MK,readradii) iop(6/33=2) iop(6/42=6)

loop3.holoCaM-CaMKII.run52.water3 

   0  1 
   C     33.61000000    57.86000000    12.38000000
   C     34.75000000    56.93000000    12.78000000
   O     35.65000000    56.66000000    11.98000000
   H     32.76300000    57.70300000    13.04700000
   H     33.94200000    58.89600000    12.45300000
   H     33.30900000    57.64600000    11.35400000
   N     34.73000000    56.38000000    14.00000000
   C     35.62000000    55.38000000    14.55000000
   C     35.22000000    54.00000000    14.05000000
   O     34.19000000    53.45000000    14.45000000
   C     35.60000000    55.49000000    16.07000000
   C     36.63000000    54.68000000    16.85000000
   O     37.46000000    54.03000000    16.17000000
   O     36.48000000    54.63000000    18.08000000
   H     34.09000000    56.80000000    14.65000000
   H     36.63000000    55.56000000    14.16000000
   H     34.64000000    55.17000000    16.46000000
   H     35.68000000    56.56000000    16.27000000
   N     36.11000000    53.34000000    13.31000000
   C     35.93000000    52.05000000    12.68000000
   C     35.95000000    50.78000000    13.52000000
   O     35.16000000    49.90000000    13.18000000
   C     37.02000000    51.80000000    11.65000000
   C     36.71000000    50.76000000    10.58000000
   C     37.64000000    50.73000000     9.37000000
   C     37.38000000    49.48000000     8.52000000
   N     38.28000000    49.27000000     7.38000000
   H     36.97000000    53.83000000    13.09000000
   H     34.99000000    52.05000000    12.12000000
   H     37.99000000    51.58000000    12.10000000
   H     37.14000000    52.77000000    11.16000000
   H     35.76000000    51.03000000    10.12000000
   H     36.65000000    49.75000000    10.98000000
   H     38.67000000    50.56000000     9.67000000
   H     37.43000000    51.62000000     8.78000000
   H     36.38000000    49.50000000     8.08000000
   H     37.50000000    48.63000000     9.19000000
   H     39.17000000    48.94000000     7.73000000
   H     38.03000000    48.59000000     6.68000000
   H     38.36000000    50.12000000     6.84000000
   N     36.80000000    50.70000000    14.55000000
   C     37.02000000    49.54000000    15.38000000
   C     36.66000000    49.71000000    16.85000000
   O     36.79000000    48.75000000    17.62000000
   C     38.47000000    49.09000000    15.25000000
   C     39.52000000    50.11000000    15.66000000
   O     39.23000000    51.31000000    15.85000000
   O     40.66000000    49.68000000    15.95000000
   H     37.40000000    51.51000000    14.63000000
   H     36.31000000    48.76000000    15.09000000
   H     38.68000000    48.95000000    14.19000000
   H     38.61000000    48.14000000    15.77000000
   N     36.16000000    50.88000000    17.25000000
   C     35.70000000    51.18000000    18.59000000
   C     36.67000000    51.28000000    19.76000000
   O     36.36000000    50.87000000    20.88000000
   H     35.97000000    51.62000000    16.58000000
   H     35.00000000    50.44000000    18.96000000
   H     35.02000000    52.03000000    18.55000000
   N     37.86000000    51.83000000    19.52000000
   C     38.79000000    52.14000000    20.58000000
   C     38.47000000    53.48000000    21.24000000
   O     38.97000000    53.69000000    22.34000000
   C     40.22000000    52.01000000    20.08000000
   C     40.72000000    53.18000000    19.24000000
   N     41.94000000    53.70000000    19.40000000
   O     40.01000000    53.70000000    18.38000000
   H     37.96000000    52.15000000    18.57000000
   H     38.65000000    51.46000000    21.42000000
   H     40.33000000    51.09000000    19.50000000
   H     40.75000000    51.86000000    21.02000000
   H     42.64000000    53.18000000    19.92000000
   H     42.29000000    54.45000000    18.82000000
   N     37.78000000    54.34000000    20.50000000
   C     37.45000000    55.70000000    20.90000000
   C     38.49000000    56.73000000    20.49000000
   O     38.57000000    57.75000000    21.17000000
   H     37.45000000    53.98000000    19.61000000
   H     37.32000000    55.79000000    21.97000000
   H     36.49000000    55.93000000    20.43000000
   N     39.26000000    56.51000000    19.42000000
   C     39.97000000    57.53000000    18.68000000
   C     39.75000000    57.31000000    17.19000000
   O     39.83000000    56.20000000    16.67000000
   C     41.45000000    57.67000000    19.03000000
   C     41.71000000    57.94000000    20.49000000
   C     41.74000000    59.25000000    20.98000000
   C     41.83000000    56.82000000    21.32000000
   C     41.91000000    59.48000000    22.35000000
   C     41.97000000    57.07000000    22.69000000
   C     41.98000000    58.38000000    23.23000000
   O     42.23000000    58.58000000    24.55000000
   H     39.28000000    55.59000000    19.02000000
   H     39.53000000    58.46000000    19.05000000
   H     41.81000000    58.44000000    18.35000000
   H     41.94000000    56.74000000    18.72000000
   H     41.63000000    60.12000000    20.35000000
   H     41.78000000    55.79000000    21.00000000
   H     41.97000000    60.43000000    22.85000000
   H     41.97000000    56.24000000    23.37000000
   H     41.99000000    59.45000000    24.88000000
   N     39.54000000    58.44000000    16.50000000
   C     39.40000000    58.39000000    15.06000000
   C     40.72000000    58.79000000    14.40000000
   O     41.35000000    59.76000000    14.82000000
   C     38.28000000    59.29000000    14.55000000
   C     37.04000000    59.36000000    15.45000000
   C     37.88000000    58.88000000    13.14000000
   C     36.47000000    60.75000000    15.21000000
   H     39.43000000    59.30000000    17.02000000
   H     39.08000000    57.42000000    14.68000000
   H     38.76000000    60.26000000    14.43000000
   H     37.21000000    59.23000000    16.52000000
   H     36.31000000    58.63000000    15.09000000
   H     38.78000000    58.89000000    12.53000000
   H     37.47000000    57.88000000    13.27000000
   H     37.10000000    59.50000000    12.69000000
   H     36.51000000    61.10000000    14.18000000
   H     35.49000000    60.98000000    15.63000000
   H     37.18000000    61.36000000    15.76000000
   N     41.17000000    58.03000000    13.40000000
   C     42.27000000    58.23000000    12.47000000
   C     41.88000000    58.71000000    11.08000000
   O     40.77000000    58.58000000    10.58000000
   C     43.14000000    56.99000000    12.33000000
   O     43.29000000    56.32000000    13.57000000
   H     40.71000000    57.14000000    13.31000000
   H     43.01000000    58.94000000    12.84000000
   H     44.10000000    57.26000000    11.89000000
   H     42.61000000    56.39000000    11.59000000
   H     42.41000000    56.02000000    13.82000000
   N     42.86000000    59.25000000    10.35000000
   C     42.69000000    59.74000000     9.00000000
   C     42.11000000    58.77000000     7.98000000
   O     41.17000000    59.08000000     7.25000000
   C     44.01000000    60.25000000     8.43000000
   H     43.79000000    59.30000000    10.73000000
   H     41.97000000    60.56000000     9.06000000
   H     44.38000000    61.03000000     9.10000000
   H     44.69000000    59.41000000     8.28000000
   H     43.65000000    60.65000000     7.48000000
   N     42.51000000    57.50000000     8.12000000
   C     42.03000000    56.40000000     7.31000000
   C     40.65000000    55.89000000     7.71000000
   O     39.82000000    55.51000000     6.89000000
   C     43.09000000    55.32000000     7.49000000
   H     43.33000000    57.43000000     8.70000000
   H     41.98000000    56.75000000     6.28000000
   H     42.70000000    54.40000000     7.05000000
   H     44.11000000    55.50000000     7.14000000
   H     43.15000000    55.02000000     8.53000000
   N     40.25000000    55.95000000     8.98000000
   C     38.87000000    55.79000000     9.40000000
   C     37.93000000    56.90000000     8.96000000
   O     36.89000000    56.60000000     8.38000000
   C     38.79000000    55.66000000    10.92000000
   C     39.83000000    54.70000000    11.49000000
   C     39.71000000    54.64000000    13.01000000
   O     40.69000000    55.08000000    13.66000000
   O     38.73000000    54.08000000    13.54000000
   H     40.99000000    56.18000000     9.64000000
   H     38.48000000    54.85000000     9.00000000
   H     37.76000000    55.39000000    11.15000000
   H     38.99000000    56.65000000    11.32000000
   H     40.85000000    54.97000000    11.21000000
   H     39.64000000    53.71000000    11.06000000
   N     38.42000000    58.14000000     8.94000000
   C     37.80000000    59.33000000     8.39000000
   H     36.86800000    59.53000000     8.91800000
   H     38.47300000    60.17900000     8.50800000
   H     37.59100000    59.17600000     7.33100000
   H     39.33000000    58.31000000     9.35000000
  Ca     40.07000000    53.66000000    15.80000000
   O     42.49000000    54.41000000    16.79000000
   H     43.25000000    53.84000000    16.90000000
   H     42.83000000    55.30000000    16.89000000
   O     42.04000000    51.62000000    16.93000000
   H     41.73000000    50.96000000    16.31000000
   H     42.39000000    51.11000000    17.66000000
   O     41.76000000    52.38000000    13.99000000
   H     41.18000000    51.70000000    13.65000000
   H     41.83000000    53.02000000    13.29000000

Ca 1.00



