%chk=loop3.apoCaM-CA-Ng.Init295.run52.water3.chk
%nprocshared=20
%mem=10GB
%nosave
#b3lyp/svp scf=(tight,noincore,xqc) Test 
#IOP(5/87=12) Density=Current Pop=(MK,readradii) iop(6/33=2) iop(6/42=6)

loop3.apoCaM-CA-Ng.Init295.run52.water3 

   0  1 
   C     87.59000000    44.90000000    36.32000000
   C     87.91000000    43.56000000    36.96000000
   O     87.75000000    43.52000000    38.18000000
   H     86.70300000    45.32400000    36.79100000
   H     88.43200000    45.57900000    36.45600000
   H     87.40400000    44.76000000    35.25500000
   N     88.39000000    42.53000000    36.26000000
   C     88.79000000    41.23000000    36.77000000
   C     90.08000000    40.72000000    36.15000000
   O     90.34000000    40.85000000    34.95000000
   C     87.62000000    40.30000000    36.49000000
   C     87.89000000    38.95000000    37.15000000
   O     87.68000000    38.80000000    38.37000000
   O     88.49000000    38.02000000    36.57000000
   H     88.42000000    42.61000000    35.26000000
   H     88.90000000    41.34000000    37.85000000
   H     87.43000000    40.19000000    35.42000000
   H     86.76000000    40.72000000    37.00000000
   N     90.93000000    40.17000000    37.03000000
   C     92.31000000    39.81000000    36.77000000
   C     92.48000000    38.61000000    35.85000000
   O     93.59000000    38.55000000    35.32000000
   C     93.11000000    39.73000000    38.07000000
   C     93.18000000    41.11000000    38.72000000
   C     94.01000000    41.18000000    40.00000000
   C     93.80000000    42.50000000    40.74000000
   N     94.48000000    42.58000000    42.04000000
   H     90.62000000    40.04000000    37.98000000
   H     92.80000000    40.58000000    36.18000000
   H     94.07000000    39.27000000    37.85000000
   H     92.56000000    39.13000000    38.80000000
   H     92.19000000    41.50000000    38.98000000
   H     93.61000000    41.79000000    37.99000000
   H     95.05000000    40.90000000    39.81000000
   H     93.62000000    40.47000000    40.73000000
   H     92.74000000    42.59000000    40.95000000
   H     94.19000000    43.34000000    40.17000000
   H     94.51000000    43.50000000    42.46000000
   H     94.08000000    42.01000000    42.77000000
   H     95.45000000    42.30000000    41.97000000
   N     91.49000000    37.74000000    35.62000000
   C     91.49000000    36.66000000    34.66000000
   C     90.43000000    36.88000000    33.60000000
   O     90.63000000    36.58000000    32.42000000
   C     91.23000000    35.32000000    35.35000000
   C     90.01000000    35.31000000    36.26000000
   O     88.82000000    35.27000000    35.88000000
   O     90.25000000    35.29000000    37.49000000
   H     90.68000000    37.95000000    36.19000000
   H     92.46000000    36.56000000    34.17000000
   H     92.11000000    34.99000000    35.91000000
   H     91.20000000    34.67000000    34.48000000
   N     89.28000000    37.43000000    33.98000000
   C     88.25000000    38.06000000    33.18000000
   C     86.82000000    37.83000000    33.65000000
   O     85.96000000    38.69000000    33.49000000
   H     89.17000000    37.66000000    34.96000000
   H     88.39000000    37.82000000    32.12000000
   H     88.40000000    39.14000000    33.18000000
   N     86.61000000    36.69000000    34.30000000
   C     85.36000000    36.14000000    34.81000000
   C     85.03000000    36.76000000    36.17000000
   O     85.83000000    36.64000000    37.09000000
   C     85.47000000    34.62000000    34.82000000
   C     84.28000000    33.93000000    35.47000000
   N     84.47000000    32.65000000    35.79000000
   O     83.19000000    34.48000000    35.58000000
   H     87.42000000    36.10000000    34.42000000
   H     84.62000000    36.33000000    34.03000000
   H     86.37000000    34.29000000    35.34000000
   H     85.36000000    34.31000000    33.79000000
   H     85.42000000    32.36000000    35.57000000
   H     83.71000000    32.02000000    35.98000000
   N     83.90000000    37.46000000    36.25000000
   C     83.52000000    38.38000000    37.30000000
   C     83.76000000    37.91000000    38.73000000
   O     84.21000000    38.75000000    39.51000000
   H     83.32000000    37.53000000    35.42000000
   H     82.45000000    38.56000000    37.28000000
   H     84.09000000    39.29000000    37.13000000
   N     83.69000000    36.60000000    38.99000000
   C     83.64000000    35.96000000    40.29000000
   C     84.99000000    36.00000000    40.98000000
   O     86.02000000    36.18000000    40.33000000
   C     83.19000000    34.50000000    40.17000000
   C     81.81000000    34.45000000    39.56000000
   C     81.63000000    33.90000000    38.28000000
   C     80.71000000    34.99000000    40.24000000
   C     80.35000000    33.94000000    37.72000000
   C     79.45000000    35.11000000    39.63000000
   C     79.27000000    34.62000000    38.32000000
   O     78.16000000    34.80000000    37.56000000
   H     83.47000000    36.04000000    38.18000000
   H     82.91000000    36.56000000    40.83000000
   H     83.10000000    34.11000000    41.18000000
   H     83.91000000    33.96000000    39.57000000
   H     82.50000000    33.47000000    37.81000000
   H     80.84000000    35.26000000    41.27000000
   H     80.30000000    33.61000000    36.70000000
   H     78.58000000    35.53000000    40.11000000
   H     77.46000000    35.18000000    38.10000000
   N     85.00000000    35.87000000    42.30000000
   C     86.10000000    35.72000000    43.24000000
   C     86.95000000    34.49000000    42.94000000
   O     87.18000000    34.14000000    41.79000000
   C     86.84000000    37.04000000    43.42000000
   C     88.23000000    36.90000000    44.04000000
   C     85.99000000    38.02000000    44.22000000
   C     89.07000000    38.17000000    44.13000000
   H     84.12000000    35.79000000    42.79000000
   H     85.62000000    35.51000000    44.19000000
   H     87.08000000    37.36000000    42.40000000
   H     88.84000000    36.15000000    43.53000000
   H     88.05000000    36.55000000    45.05000000
   H     86.32000000    39.02000000    43.96000000
   H     84.96000000    37.82000000    43.93000000
   H     86.11000000    37.81000000    45.29000000
   H     88.69000000    38.85000000    44.89000000
   H     90.11000000    38.03000000    44.43000000
   H     89.22000000    38.69000000    43.19000000
   N     87.39000000    33.78000000    43.98000000
   C     88.30000000    32.65000000    43.99000000
   C     88.12000000    31.69000000    45.16000000
   O     88.59000000    30.56000000    45.18000000
   C     89.70000000    33.25000000    44.07000000
   O     89.80000000    34.16000000    45.14000000
   H     87.26000000    34.21000000    44.89000000
   H     88.28000000    32.05000000    43.08000000
   H     90.09000000    33.84000000    43.24000000
   H     90.40000000    32.43000000    44.25000000
   H     90.60000000    34.61000000    44.88000000
   N     87.33000000    32.02000000    46.18000000
   C     87.04000000    31.03000000    47.20000000
   C     88.15000000    30.30000000    47.93000000
   O     88.15000000    29.09000000    48.16000000
   C     85.88000000    30.18000000    46.69000000
   H     86.81000000    32.89000000    46.16000000
   H     86.56000000    31.53000000    48.04000000
   H     85.51000000    29.54000000    47.49000000
   H     85.04000000    30.86000000    46.51000000
   H     86.10000000    29.60000000    45.80000000
   N     89.17000000    30.94000000    48.51000000
   C     89.53000000    32.35000000    48.46000000
   C     89.55000000    33.04000000    49.82000000
   O     89.72000000    32.34000000    50.82000000
   C     90.86000000    32.45000000    47.73000000
   H     89.84000000    30.34000000    48.95000000
   H     88.71000000    32.80000000    47.91000000
   H     90.81000000    32.05000000    46.71000000
   H     91.33000000    33.43000000    47.64000000
   H     91.58000000    31.86000000    48.31000000
   N     89.32000000    34.35000000    49.96000000
   C     89.06000000    35.32000000    48.92000000
   C     87.78000000    36.10000000    49.21000000
   O     86.99000000    36.31000000    48.29000000
   C     90.25000000    36.27000000    48.82000000
   C     90.09000000    37.29000000    47.69000000
   C     91.42000000    37.94000000    47.30000000
   O     91.87000000    38.75000000    48.13000000
   O     92.07000000    37.53000000    46.31000000
   H     89.13000000    34.61000000    50.92000000
   H     89.02000000    34.91000000    47.91000000
   H     91.14000000    35.67000000    48.64000000
   H     90.56000000    36.73000000    49.75000000
   H     89.38000000    38.08000000    47.94000000
   H     89.63000000    36.72000000    46.89000000
   N     87.61000000    36.54000000    50.46000000
   C     86.49000000    37.26000000    51.04000000
   H     85.62200000    36.60200000    51.09000000
   H     86.75200000    37.59200000    52.04500000
   H     86.25400000    38.12500000    50.42100000
   H     88.28000000    36.29000000    51.16000000
  Ca     88.05000000    36.18000000    38.36000000
   O     89.26000000    35.02000000    40.43000000
   H     90.06000000    35.25000000    40.89000000
   H     88.80000000    34.43000000    41.03000000
   O     86.59000000    33.56000000    38.37000000
   H     86.88000000    32.91000000    37.73000000
   H     86.04000000    33.06000000    38.98000000
   O     90.14000000    37.58000000    39.47000000
   H     90.41000000    36.95000000    40.14000000
   H     90.29000000    38.44000000    39.88000000

Ca 1.00



