%chk=loop1.apoCaM-CA-Ng.Init295.run77.water5.chk
%nprocshared=20
%mem=10GB
%nosave
#b3lyp/svp scf=(tight,noincore,xqc) Test 
#IOP(5/87=12) Density=Current Pop=(MK,readradii) iop(6/33=2) iop(6/42=6)

loop1.apoCaM-CA-Ng.Init295.run77.water5 

   0  1 
   C      4.05000000     9.36000000    63.37000000
   C      4.27000000    10.53000000    62.43000000
   O      3.58000000    11.55000000    62.47000000
   H      3.03100000     8.99100000    63.25700000
   H      4.75300000     8.56300000    63.13000000
   H      4.20600000     9.68500000    64.39900000
   N      5.28000000    10.55000000    61.56000000
   C      5.68000000    11.69000000    60.76000000
   C      6.26000000    11.33000000    59.40000000
   O      6.74000000    10.22000000    59.21000000
   C      6.64000000    12.52000000    61.60000000
   C      6.72000000    14.00000000    61.25000000
   O      6.34000000    14.40000000    60.13000000
   O      7.20000000    14.78000000    62.10000000
   H      5.95000000     9.79000000    61.56000000
   H      4.82000000    12.35000000    60.63000000
   H      7.63000000    12.08000000    61.50000000
   H      6.36000000    12.43000000    62.65000000
   N      6.20000000    12.27000000    58.45000000
   C      6.85000000    12.16000000    57.15000000
   C      8.36000000    12.02000000    57.23000000
   O      8.86000000    11.19000000    56.48000000
   C      6.40000000    13.30000000    56.25000000
   C      7.10000000    13.31000000    54.89000000
   C      6.57000000    14.32000000    53.88000000
   C      7.46000000    14.33000000    52.64000000
   N      7.05000000    15.37000000    51.68000000
   H      5.91000000    13.18000000    58.77000000
   H      6.46000000    11.24000000    56.71000000
   H      6.65000000    14.25000000    56.72000000
   H      5.31000000    13.31000000    56.14000000
   H      7.15000000    12.28000000    54.55000000
   H      8.10000000    13.58000000    55.23000000
   H      6.48000000    15.30000000    54.35000000
   H      5.54000000    14.06000000    53.64000000
   H      7.48000000    13.30000000    52.27000000
   H      8.50000000    14.45000000    52.94000000
   H      7.76000000    15.43000000    50.97000000
   H      6.23000000    15.04000000    51.18000000
   H      6.91000000    16.27000000    52.11000000
   N      9.07000000    12.69000000    58.14000000
   C     10.51000000    12.70000000    58.26000000
   C     10.82000000    12.67000000    59.75000000
   O     10.01000000    13.08000000    60.57000000
   C     11.18000000    13.89000000    57.57000000
   C     12.69000000    13.78000000    57.71000000
   O     13.23000000    12.66000000    57.65000000
   O     13.34000000    14.84000000    57.80000000
   H      8.55000000    13.36000000    58.70000000
   H     10.89000000    11.82000000    57.74000000
   H     10.79000000    14.83000000    57.96000000
   H     10.95000000    13.77000000    56.51000000
   N     11.86000000    11.86000000    60.00000000
   C     12.17000000    11.49000000    61.37000000
   C     13.52000000    10.80000000    61.45000000
   O     13.85000000    10.07000000    60.52000000
   H     12.46000000    11.61000000    59.23000000
   H     11.36000000    10.81000000    61.63000000
   H     12.09000000    12.32000000    62.07000000
   N     14.32000000    11.07000000    62.48000000
   C     15.69000000    10.63000000    62.36000000
   C     16.23000000    10.09000000    63.68000000
   O     17.42000000     9.77000000    63.75000000
   C     16.59000000    11.70000000    61.73000000
   C     16.27000000    12.23000000    60.34000000
   O     16.78000000    11.71000000    59.32000000
   O     15.53000000    13.24000000    60.28000000
   H     13.95000000    11.76000000    63.13000000
   H     15.77000000     9.78000000    61.69000000
   H     17.61000000    11.33000000    61.81000000
   H     16.57000000    12.49000000    62.47000000
   N     15.42000000     9.99000000    64.73000000
   C     15.88000000     9.52000000    66.02000000
   C     15.09000000     8.27000000    66.38000000
   O     14.45000000     7.60000000    65.57000000
   H     14.58000000    10.55000000    64.72000000
   H     15.61000000    10.21000000    66.82000000
   H     16.94000000     9.29000000    66.04000000
   N     15.08000000     8.02000000    67.70000000
   C     14.43000000     6.98000000    68.47000000
   C     15.26000000     5.71000000    68.62000000
   O     16.48000000     5.83000000    68.65000000
   C     13.83000000     7.48000000    69.78000000
   C     14.67000000     8.17000000    70.85000000
   O     12.84000000     8.45000000    69.51000000
   H     15.60000000     8.69000000    68.25000000
   H     13.54000000     6.69000000    67.91000000
   H     13.30000000     6.69000000    70.33000000
   H     12.20000000     8.30000000    70.21000000
   H     15.13000000     9.06000000    70.42000000
   H     13.99000000     8.41000000    71.67000000
   H     15.35000000     7.44000000    71.28000000
   N     14.63000000     4.54000000    68.66000000
   C     15.20000000     3.23000000    68.89000000
   C     16.13000000     2.74000000    67.79000000
   O     17.15000000     2.14000000    68.12000000
   C     14.09000000     2.20000000    69.08000000
   C     13.33000000     1.84000000    67.81000000
   C     13.17000000     2.38000000    70.29000000
   C     12.38000000     0.65000000    67.95000000
   H     13.62000000     4.59000000    68.64000000
   H     15.75000000     3.38000000    69.82000000
   H     14.56000000     1.21000000    69.15000000
   H     14.01000000     1.67000000    66.98000000
   H     12.74000000     2.73000000    67.56000000
   H     13.58000000     3.00000000    71.08000000
   H     12.31000000     2.88000000    69.84000000
   H     12.86000000     1.40000000    70.66000000
   H     11.65000000     0.94000000    68.70000000
   H     12.03000000     0.45000000    66.94000000
   H     12.88000000    -0.24000000    68.33000000
   N     16.00000000     3.25000000    66.57000000
   C     17.06000000     3.30000000    65.58000000
   C     17.12000000     1.98000000    64.83000000
   O     16.09000000     1.53000000    64.33000000
   C     16.80000000     4.46000000    64.63000000
   C     17.21000000     5.82000000    65.19000000
   O     17.64000000     4.34000000    63.50000000
   H     15.14000000     3.76000000    66.40000000
   H     18.00000000     3.48000000    66.11000000
   H     15.76000000     4.55000000    64.29000000
   H     17.37000000     5.05000000    62.92000000
   H     18.28000000     5.72000000    65.41000000
   H     17.07000000     6.62000000    64.47000000
   H     16.69000000     6.01000000    66.12000000
   N     18.29000000     1.34000000    64.91000000
   C     18.57000000     0.03000000    64.35000000
   C     18.24000000    -1.19000000    65.19000000
   O     18.42000000    -2.35000000    64.81000000
   C     19.98000000    -0.17000000    63.78000000
   C     21.07000000     0.00000000    64.83000000
   O     20.29000000     0.82000000    62.84000000
   H     18.96000000     1.84000000    65.47000000
   H     17.91000000    -0.02000000    63.49000000
   H     20.04000000    -1.18000000    63.38000000
   H     20.97000000     0.44000000    62.28000000
   H     22.02000000    -0.43000000    64.52000000
   H     21.16000000     1.07000000    65.06000000
   H     20.78000000    -0.47000000    65.77000000
   N     17.66000000    -0.90000000    66.35000000
   C     17.11000000    -1.86000000    67.29000000
   C     15.61000000    -2.09000000    67.18000000
   O     14.87000000    -1.27000000    66.65000000
   C     17.47000000    -1.36000000    68.68000000
   C     18.95000000    -0.99000000    68.76000000
   C     19.99000000    -2.07000000    68.50000000
   C     19.84000000    -3.29000000    69.41000000
   N     21.03000000    -4.16000000    69.37000000
   H     17.50000000     0.10000000    66.46000000
   H     17.62000000    -2.81000000    67.11000000
   H     17.28000000    -2.07000000    69.49000000
   H     16.95000000    -0.42000000    68.86000000
   H     19.18000000    -0.76000000    69.80000000
   H     19.17000000    -0.07000000    68.23000000
   H     21.05000000    -1.82000000    68.43000000
   H     19.85000000    -2.49000000    67.50000000
   H     18.99000000    -3.87000000    69.06000000
   H     19.69000000    -3.04000000    70.46000000
   H     21.83000000    -3.75000000    69.83000000
   H     20.83000000    -5.01000000    69.88000000
   H     21.24000000    -4.43000000    68.42000000
   N     15.13000000    -3.20000000    67.74000000
   C     13.71000000    -3.41000000    67.95000000
   C     13.06000000    -4.20000000    66.82000000
   O     13.79000000    -4.85000000    66.07000000
   C     13.51000000    -4.10000000    69.30000000
   C     14.03000000    -3.36000000    70.53000000
   C     13.81000000    -4.04000000    71.88000000
   O     14.51000000    -3.64000000    72.83000000
   O     12.90000000    -4.90000000    72.00000000
   H     15.74000000    -3.66000000    68.40000000
   H     13.16000000    -2.47000000    67.97000000
   H     13.93000000    -5.10000000    69.26000000
   H     12.44000000    -4.19000000    69.44000000
   H     13.48000000    -2.42000000    70.55000000
   H     15.05000000    -3.06000000    70.33000000
   N     11.74000000    -4.12000000    66.64000000
   C     10.71000000    -3.29000000    67.25000000
   H      9.80200000    -3.87800000    67.38400000
   H     11.05700000    -2.93300000    68.21900000
   H     10.49800000    -2.43900000    66.60300000
   H     11.37000000    -4.75000000    65.95000000
  Ca     15.83000000    13.60000000    57.63000000
   O     16.50000000    15.96000000    56.66000000
   H     16.50000000    15.99000000    55.70000000
   H     16.52000000    16.88000000    56.92000000
   O     14.87000000    13.73000000    55.25000000
   H     15.23000000    14.06000000    54.43000000
   H     14.14000000    13.17000000    54.98000000
   O     16.10000000    11.05000000    56.83000000
   H     16.47000000    10.41000000    57.43000000
   H     16.08000000    10.60000000    55.98000000
   O     17.47000000    15.09000000    59.10000000
   H     17.70000000    15.62000000    59.86000000
   H     18.24000000    15.14000000    58.53000000
   O     17.98000000    13.13000000    56.00000000
   H     18.09000000    13.84000000    55.37000000
   H     18.22000000    12.34000000    55.52000000

Ca 1.00



