%chk=loop2.apoCaM-CA-Ng.Init293.run29.water7.chk
%nprocshared=20
%mem=10GB
%nosave
#b3lyp/svp scf=(tight,noincore,xqc) Test 
#IOP(5/87=12) Density=Current Pop=(MK,readradii) iop(6/33=2) iop(6/42=6)

loop2.apoCaM-CA-Ng.Init293.run29.water7 

   -2  1 
   C     52.61000000    85.05000000    24.39000000
   C     52.21000000    84.11000000    25.51000000
   O     51.52000000    84.56000000    26.43000000
   H     53.63100000    84.82900000    24.07800000
   H     51.93500000    84.91700000    23.54500000
   H     52.55400000    86.08000000    24.74200000
   N     52.63000000    82.84000000    25.51000000
   C     52.58000000    81.90000000    26.60000000
   C     53.62000000    82.26000000    27.65000000
   O     53.31000000    82.41000000    28.83000000
   C     52.79000000    80.47000000    26.10000000
   C     52.64000000    79.31000000    27.08000000
   O     53.47000000    78.38000000    27.01000000
   O     51.66000000    79.25000000    27.85000000
   H     53.29000000    82.61000000    24.78000000
   H     51.58000000    81.97000000    27.03000000
   H     53.76000000    80.41000000    25.60000000
   H     51.99000000    80.46000000    25.36000000
   N     54.81000000    82.65000000    27.19000000
   C     55.82000000    83.37000000    27.94000000
   C     55.42000000    84.59000000    28.75000000
   O     55.57000000    84.63000000    29.97000000
   C     56.59000000    82.38000000    28.81000000
   H     55.12000000    82.40000000    26.26000000
   H     56.52000000    83.71000000    27.17000000
   H     57.47000000    82.84000000    29.25000000
   H     56.02000000    81.92000000    29.63000000
   H     56.89000000    81.55000000    28.17000000
   N     54.85000000    85.58000000    28.06000000
   C     54.29000000    86.77000000    28.65000000
   C     53.34000000    86.58000000    29.82000000
   O     53.47000000    87.29000000    30.82000000
   C     55.36000000    87.84000000    28.87000000
   C     56.13000000    88.23000000    27.61000000
   O     57.38000000    88.15000000    27.65000000
   O     55.51000000    88.69000000    26.63000000
   H     54.63000000    85.39000000    27.09000000
   H     53.66000000    87.31000000    27.93000000
   H     56.09000000    87.50000000    29.60000000
   H     54.87000000    88.75000000    29.18000000
   N     52.44000000    85.61000000    29.72000000
   C     51.62000000    85.19000000    30.84000000
   C     50.68000000    86.31000000    31.28000000
   O     49.84000000    86.74000000    30.49000000
   H     52.60000000    84.91000000    29.01000000
   H     52.28000000    84.99000000    31.68000000
   H     51.03000000    84.29000000    30.65000000
   N     50.58000000    86.62000000    32.57000000
   C     49.47000000    87.31000000    33.19000000
   C     48.11000000    86.94000000    32.60000000
   O     47.34000000    87.80000000    32.19000000
   C     49.72000000    88.79000000    32.94000000
   C     51.01000000    89.33000000    33.54000000
   N     51.05000000    89.93000000    34.73000000
   O     52.11000000    89.16000000    33.00000000
   H     51.19000000    86.16000000    33.24000000
   H     49.44000000    87.21000000    34.28000000
   H     48.98000000    89.37000000    33.50000000
   H     49.73000000    88.97000000    31.86000000
   H     50.17000000    90.09000000    35.19000000
   H     51.91000000    90.36000000    35.02000000
   N     47.68000000    85.68000000    32.68000000
   C     46.38000000    85.18000000    32.28000000
   C     46.21000000    85.02000000    30.78000000
   O     45.24000000    84.44000000    30.31000000
   H     48.32000000    84.97000000    32.99000000
   H     45.71000000    85.97000000    32.64000000
   H     46.18000000    84.28000000    32.87000000
   N     47.12000000    85.48000000    29.91000000
   C     47.12000000    85.39000000    28.47000000
   C     46.92000000    86.70000000    27.73000000
   O     46.99000000    87.78000000    28.31000000
   C     48.42000000    84.75000000    27.98000000
   C     48.74000000    83.41000000    28.64000000
   O     48.33000000    84.39000000    26.62000000
   H     47.91000000    85.92000000    30.37000000
   H     46.31000000    84.70000000    28.21000000
   H     49.27000000    85.42000000    28.13000000
   H     49.26000000    84.35000000    26.36000000
   H     49.32000000    83.53000000    29.55000000
   H     47.79000000    82.88000000    28.65000000
   H     49.44000000    82.92000000    27.96000000
   N     46.58000000    86.72000000    26.44000000
   C     46.56000000    87.89000000    25.57000000
   C     47.97000000    88.30000000    25.19000000
   O     48.89000000    87.55000000    25.53000000
   C     45.75000000    87.64000000    24.30000000
   C     45.94000000    86.38000000    23.47000000
   C     44.27000000    87.73000000    24.66000000
   C     47.31000000    86.12000000    22.84000000
   H     46.78000000    85.90000000    25.88000000
   H     46.16000000    88.77000000    26.08000000
   H     45.89000000    88.43000000    23.56000000
   H     45.36000000    86.51000000    22.56000000
   H     45.59000000    85.45000000    23.92000000
   H     44.10000000    88.64000000    25.22000000
   H     43.60000000    87.70000000    23.80000000
   H     43.95000000    86.93000000    25.32000000
   H     47.25000000    85.09000000    22.49000000
   H     47.60000000    86.85000000    22.08000000
   H     48.09000000    86.21000000    23.59000000
   N     48.18000000    89.50000000    24.66000000
   C     49.47000000    90.13000000    24.84000000
   C     49.53000000    91.30000000    25.81000000
   O     50.25000000    92.29000000    25.66000000
   C     49.97000000    90.46000000    23.44000000
   C     51.40000000    90.97000000    23.39000000
   O     52.26000000    90.51000000    24.17000000
   O     51.74000000    91.79000000    22.50000000
   H     47.41000000    90.15000000    24.54000000
   H     50.15000000    89.41000000    25.30000000
   H     49.30000000    91.21000000    23.02000000
   H     49.88000000    89.52000000    22.90000000
   N     48.66000000    91.22000000    26.82000000
   C     48.78000000    91.94000000    28.07000000
   C     47.69000000    92.91000000    28.48000000
   O     48.04000000    93.95000000    29.03000000
   C     49.02000000    90.96000000    29.22000000
   C     48.87000000    91.39000000    30.66000000
   C     47.62000000    91.25000000    31.28000000
   C     49.90000000    91.98000000    31.40000000
   C     47.39000000    91.66000000    32.59000000
   C     49.66000000    92.41000000    32.71000000
   C     48.42000000    92.25000000    33.33000000
   H     48.16000000    90.35000000    26.94000000
   H     49.69000000    92.54000000    28.00000000
   H     49.94000000    90.42000000    29.03000000
   H     48.28000000    90.19000000    29.02000000
   H     46.73000000    90.95000000    30.74000000
   H     50.84000000    92.27000000    30.96000000
   H     46.37000000    91.52000000    32.94000000
   H     50.45000000    92.87000000    33.29000000
   H     48.24000000    92.64000000    34.32000000
   N     46.42000000    92.59000000    28.26000000
   C     45.86000000    91.54000000    27.43000000
   C     45.84000000    91.94000000    25.96000000
   O     45.61000000    91.11000000    25.08000000
   C     44.41000000    91.53000000    27.90000000
   C     44.03000000    92.94000000    28.35000000
   C     45.39000000    93.40000000    28.88000000
   H     46.29000000    90.55000000    27.55000000
   H     43.82000000    91.14000000    27.07000000
   H     44.32000000    90.76000000    28.67000000
   H     43.89000000    93.50000000    27.43000000
   H     43.22000000    92.89000000    29.09000000
   H     45.48000000    94.47000000    28.68000000
   H     45.34000000    93.27000000    29.96000000
   N     46.05000000    93.23000000    25.69000000
   C     45.80000000    93.83000000    24.40000000
   C     46.49000000    93.14000000    23.22000000
   O     47.70000000    93.27000000    23.07000000
   C     46.10000000    95.30000000    24.64000000
   C     45.75000000    96.12000000    23.40000000
   C     46.13000000    97.58000000    23.59000000
   O     47.28000000    97.90000000    23.22000000
   O     45.32000000    98.38000000    24.11000000
   H     46.39000000    93.87000000    26.40000000
   H     44.74000000    93.72000000    24.21000000
   H     47.15000000    95.46000000    24.93000000
   H     45.51000000    95.74000000    25.45000000
   H     44.68000000    95.97000000    23.24000000
   H     46.25000000    95.65000000    22.55000000
   N     45.70000000    92.60000000    22.30000000
   C     46.15000000    91.82000000    21.16000000
   H     47.16700000    91.47100000    21.33800000
   H     45.49100000    90.96300000    21.02300000
   H     46.13100000    92.44100000    20.26400000
   H     44.73000000    92.52000000    22.56000000
  Ca     54.54000000    90.79000000    25.72000000
   O     54.73000000    92.34000000    23.29000000
   H     55.23000000    92.30000000    22.47000000
   H     53.81000000    92.33000000    23.00000000
   O     54.69000000    88.84000000    23.78000000
   H     55.32000000    88.32000000    23.29000000
   H     53.86000000    88.70000000    23.32000000
   O     52.57000000    89.63000000    27.24000000
   H     52.04000000    88.84000000    27.30000000
   H     52.62000000    89.96000000    28.14000000
   O     55.58000000    93.45000000    25.75000000
   H     56.18000000    93.43000000    25.00000000
   H     55.00000000    94.20000000    25.57000000
   O     55.29000000    91.48000000    28.36000000
   H     56.06000000    91.15000000    28.83000000
   H     54.82000000    92.00000000    29.01000000
   O     57.07000000    90.66000000    24.86000000
   H     57.75000000    89.99000000    24.93000000
   H     57.26000000    91.10000000    24.03000000
   O     52.74000000    92.48000000    26.54000000
   H     52.60000000    92.90000000    27.38000000
   H     51.93000000    92.64000000    26.05000000

Ca 1.00



