%chk=loop4.apoCaM-CA-Ng.Init31.run71.water4.chk
%nprocshared=20
%mem=10GB
%nosave
#b3lyp/svp scf=(tight,noincore,xqc) Test 
#IOP(5/87=12) Density=Current Pop=(MK,readradii) iop(6/33=2) iop(6/42=6)

loop4.apoCaM-CA-Ng.Init31.run71.water4 

   -3  1 
   C     99.10000000    37.81000000    35.50000000
   C     99.20000000    39.31000000    35.23000000
   O     98.15000000    39.95000000    35.14000000
   H     98.12900000    37.44500000    35.16400000
   H     99.89000000    37.28900000    34.95900000
   H     99.20800000    37.62500000    36.56900000
   N    100.32000000    40.03000000    35.29000000
   C    101.64000000    39.79000000    35.84000000
   C    101.87000000    40.27000000    37.26000000
   O    102.73000000    39.74000000    37.95000000
   C    102.68000000    40.33000000    34.86000000
   C    104.13000000    40.07000000    35.21000000
   O    104.87000000    41.08000000    35.27000000
   O    104.55000000    38.90000000    35.39000000
   H    100.16000000    41.00000000    35.05000000
   H    101.75000000    38.71000000    35.94000000
   H    102.44000000    41.38000000    34.65000000
   H    102.49000000    39.81000000    33.93000000
   N    100.95000000    41.08000000    37.79000000
   C    100.48000000    41.03000000    39.16000000
   C    101.25000000    42.02000000    40.02000000
   O    101.20000000    41.89000000    41.24000000
   C     98.98000000    41.27000000    39.22000000
   C     98.45000000    40.58000000    40.48000000
   C     98.58000000    42.74000000    39.10000000
   C     96.98000000    40.86000000    40.78000000
   H    100.24000000    41.42000000    37.15000000
   H    100.58000000    40.01000000    39.54000000
   H     98.51000000    40.77000000    38.37000000
   H     99.06000000    40.86000000    41.34000000
   H     98.65000000    39.51000000    40.41000000
   H     98.81000000    43.31000000    40.00000000
   H     99.06000000    43.14000000    38.21000000
   H     97.50000000    42.78000000    38.92000000
   H     96.28000000    40.33000000    40.14000000
   H     96.73000000    40.75000000    41.84000000
   H     96.87000000    41.93000000    40.62000000
   N    102.08000000    42.90000000    39.45000000
   C    102.77000000    44.01000000    40.08000000
   C    104.28000000    43.96000000    39.96000000
   O    105.02000000    44.64000000    40.67000000
   C    102.18000000    45.32000000    39.56000000
   C    102.50000000    46.47000000    40.51000000
   O    103.47000000    47.23000000    40.29000000
   O    101.67000000    46.68000000    41.41000000
   H    101.97000000    42.92000000    38.45000000
   H    102.71000000    43.92000000    41.16000000
   H    101.12000000    45.15000000    39.37000000
   H    102.53000000    45.55000000    38.55000000
   N    104.91000000    43.33000000    38.96000000
   C    106.33000000    43.46000000    38.72000000
   C    106.64000000    44.82000000    38.10000000
   O    106.03000000    45.13000000    37.08000000
   H    104.40000000    42.85000000    38.24000000
   H    106.72000000    42.68000000    38.06000000
   H    106.86000000    43.36000000    39.67000000
   N    107.72000000    45.44000000    38.59000000
   C    108.32000000    46.55000000    37.90000000
   C    108.63000000    47.77000000    38.77000000
   O    108.97000000    47.52000000    39.92000000
   C    109.50000000    46.15000000    37.02000000
   C    110.62000000    45.53000000    37.83000000
   O    110.59000000    44.32000000    38.16000000
   O    111.65000000    46.22000000    38.02000000
   H    108.12000000    45.11000000    39.46000000
   H    107.63000000    46.86000000    37.11000000
   H    109.83000000    47.02000000    36.45000000
   H    109.10000000    45.36000000    36.39000000
   N    108.55000000    49.04000000    38.36000000
   C    108.29000000    49.51000000    37.02000000
   C    108.68000000    50.97000000    36.79000000
   O    108.35000000    51.76000000    37.66000000
   H    108.78000000    49.70000000    39.08000000
   H    107.28000000    49.40000000    36.62000000
   H    108.85000000    48.84000000    36.37000000
   N    109.17000000    51.47000000    35.65000000
   C    109.52000000    50.82000000    34.41000000
   C    108.35000000    50.17000000    33.69000000
   O    107.18000000    50.40000000    34.00000000
   C    110.72000000    49.89000000    34.57000000
   C    112.03000000    50.55000000    34.97000000
   C    113.27000000    49.67000000    34.91000000
   N    113.78000000    49.38000000    33.71000000
   O    113.74000000    49.18000000    35.93000000
   H    109.04000000    52.45000000    35.44000000
   H    109.92000000    51.55000000    33.71000000
   H    110.90000000    49.37000000    33.63000000
   H    110.46000000    49.09000000    35.27000000
   H    112.00000000    50.91000000    36.00000000
   H    112.14000000    51.46000000    34.38000000
   H    113.36000000    49.77000000    32.87000000
   H    114.73000000    49.03000000    33.68000000
   N    108.55000000    49.45000000    32.59000000
   C    107.51000000    48.69000000    31.91000000
   C    107.74000000    48.91000000    30.43000000
   O    108.89000000    49.09000000    30.02000000
   C    107.61000000    47.22000000    32.30000000
   C    106.42000000    46.47000000    31.73000000
   C    107.75000000    46.92000000    33.79000000
   H    109.44000000    49.49000000    32.12000000
   H    106.50000000    48.99000000    32.18000000
   H    108.47000000    46.87000000    31.72000000
   H    106.56000000    46.39000000    30.66000000
   H    106.33000000    45.44000000    32.09000000
   H    105.52000000    47.09000000    31.77000000
   H    108.60000000    47.48000000    34.17000000
   H    106.91000000    47.33000000    34.36000000
   H    107.85000000    45.84000000    33.94000000
   N    106.68000000    48.75000000    29.64000000
   C    106.76000000    48.58000000    28.20000000
   C    107.25000000    47.28000000    27.57000000
   O    107.19000000    47.17000000    26.35000000
   C    105.44000000    49.14000000    27.66000000
   C    105.59000000    49.57000000    26.21000000
   N    104.62000000    49.24000000    25.35000000
   O    106.62000000    50.13000000    25.84000000
   H    105.75000000    48.57000000    30.01000000
   H    107.52000000    49.30000000    27.92000000
   H    105.16000000    50.06000000    28.18000000
   H    104.62000000    48.43000000    27.72000000
   H    103.82000000    48.68000000    25.61000000
   H    104.85000000    49.35000000    24.37000000
   N    107.77000000    46.30000000    28.31000000
   C    108.32000000    45.03000000    27.88000000
   C    107.74000000    43.82000000    28.59000000
   O    107.31000000    43.97000000    29.73000000
   C    109.84000000    45.13000000    27.90000000
   C    110.45000000    45.45000000    29.24000000
   C    110.62000000    44.47000000    30.22000000
   C    110.70000000    46.80000000    29.53000000
   C    111.03000000    44.88000000    31.50000000
   C    111.12000000    47.18000000    30.81000000
   C    111.37000000    46.21000000    31.80000000
   O    111.97000000    46.60000000    32.97000000
   H    107.77000000    46.40000000    29.31000000
   H    108.05000000    44.84000000    26.84000000
   H    110.09000000    45.89000000    27.16000000
   H    110.24000000    44.18000000    27.56000000
   H    110.67000000    43.43000000    29.94000000
   H    110.49000000    47.49000000    28.73000000
   H    111.28000000    44.05000000    32.15000000
   H    111.39000000    48.21000000    31.01000000
   H    112.07000000    45.84000000    33.55000000
   N    107.62000000    42.68000000    27.91000000
   C    107.11000000    41.47000000    28.53000000
   C    105.60000000    41.60000000    28.64000000
   O    104.89000000    42.11000000    27.78000000
   C    107.53000000    40.29000000    27.67000000
   C    107.10000000    38.96000000    28.28000000
   C    107.54000000    37.81000000    27.37000000
   O    106.78000000    37.02000000    26.78000000
   O    108.77000000    37.73000000    27.20000000
   H    108.12000000    42.64000000    27.04000000
   H    107.51000000    41.39000000    29.55000000
   H    108.62000000    40.31000000    27.67000000
   H    107.22000000    40.43000000    26.63000000
   H    106.01000000    38.91000000    28.29000000
   H    107.54000000    38.86000000    29.27000000
   N    105.02000000    41.26000000    29.79000000
   C    103.61000000    41.09000000    30.08000000
   C    102.99000000    42.44000000    30.44000000
   O    102.25000000    42.57000000    31.41000000
   C    103.40000000    40.07000000    31.19000000
   C    103.98000000    38.71000000    30.82000000
   C    104.24000000    37.85000000    32.05000000
   O    103.32000000    37.19000000    32.58000000
   O    105.40000000    37.81000000    32.53000000
   H    105.62000000    40.91000000    30.53000000
   H    102.95000000    40.75000000    29.28000000
   H    102.34000000    40.04000000    31.46000000
   H    103.92000000    40.44000000    32.07000000
   H    104.93000000    38.73000000    30.29000000
   H    103.17000000    38.32000000    30.20000000
   N    103.40000000    43.48000000    29.71000000
   C    102.88000000    44.80000000    30.00000000
   H    101.90300000    44.70900000    30.47400000
   H    103.56200000    45.32000000    30.67200000
   H    102.78200000    45.36400000    29.07300000
   H    103.86000000    43.30000000    28.82000000
  Ca    104.94300000    36.41000000    34.73000000
   O    107.26300000    37.79000000    34.95000000
   H    108.12300000    37.41000000    35.14000000
   H    107.34300000    38.71000000    35.20000000
   O    104.92300000    34.36000000    32.93000000
   H    105.19300000    33.47000000    33.16000000
   H    104.55300000    34.28000000    32.05000000
   O    106.77300000    34.82000000    35.58000000
   H    107.71300000    34.65000000    35.54000000
   H    106.41300000    34.11000000    36.11000000
   O    105.28300000    36.94000000    37.36000000
   H    105.20300000    37.90000000    37.32000000
   H    104.81300000    36.69000000    38.15000000

Ca 1.00



