%chk=loop2.holoCaM.run69.water1.chk
%nprocshared=20
%mem=10GB
%nosave
#b3lyp/svp scf=(tight,noincore,xqc) Test 
#IOP(5/87=12) Density=Current Pop=(MK,readradii) iop(6/33=2) iop(6/42=6)

loop2.holoCaM.run69.water1 

   -2  1 
   C     53.14000000    53.86000000     0.58000000
   C     51.64000000    53.87000000     0.81000000
   O     51.11000000    54.32000000     1.83000000
   H     53.65100000    53.69100000     1.52800000
   H     53.39600000    53.06200000    -0.11700000
   H     53.45100000    54.81900000     0.16600000
   N     50.87000000    53.34000000    -0.14000000
   C     49.45000000    53.07000000    -0.02000000
   C     49.13000000    51.95000000     0.96000000
   O     49.58000000    50.82000000     0.76000000
   C     48.90000000    52.79000000    -1.41000000
   C     47.40000000    52.52000000    -1.46000000
   O     46.99000000    52.01000000    -2.53000000
   O     46.68000000    52.74000000    -0.47000000
   H     51.32000000    53.12000000    -1.01000000
   H     48.96000000    54.01000000     0.25000000
   H     49.42000000    52.00000000    -1.95000000
   H     49.03000000    53.72000000    -1.97000000
   N     48.28000000    52.24000000     1.95000000
   C     47.89000000    51.42000000     3.08000000
   C     46.74000000    50.48000000     2.77000000
   O     46.67000000    49.40000000     3.35000000
   C     47.60000000    52.24000000     4.34000000
   H     47.97000000    53.20000000     1.97000000
   H     48.78000000    50.84000000     3.31000000
   H     47.50000000    51.56000000     5.19000000
   H     48.41000000    52.95000000     4.49000000
   H     46.72000000    52.85000000     4.19000000
   N     45.83000000    50.79000000     1.85000000
   C     44.55000000    50.16000000     1.60000000
   C     44.46000000    49.52000000     0.22000000
   O     43.51000000    48.84000000    -0.17000000
   C     43.32000000    51.04000000     1.81000000
   C     43.56000000    52.44000000     1.28000000
   O     43.44000000    52.73000000     0.07000000
   O     43.99000000    53.37000000     2.00000000
   H     46.12000000    51.59000000     1.30000000
   H     44.49000000    49.27000000     2.22000000
   H     43.13000000    51.12000000     2.88000000
   H     42.44000000    50.66000000     1.29000000
   N     45.45000000    49.73000000    -0.65000000
   C     45.70000000    49.03000000    -1.89000000
   C     44.75000000    49.33000000    -3.04000000
   O     44.86000000    48.68000000    -4.08000000
   H     46.33000000    50.13000000    -0.33000000
   H     45.60000000    47.96000000    -1.73000000
   H     46.70000000    49.32000000    -2.24000000
   N     44.03000000    50.45000000    -2.96000000
   C     43.21000000    51.00000000    -4.02000000
   C     43.97000000    51.78000000    -5.08000000
   O     43.36000000    52.09000000    -6.10000000
   C     42.17000000    51.88000000    -3.34000000
   C     41.12000000    51.15000000    -2.50000000
   N     41.22000000    51.52000000    -1.22000000
   O     40.26000000    50.39000000    -2.94000000
   H     43.95000000    50.92000000    -2.07000000
   H     42.72000000    50.14000000    -4.48000000
   H     41.54000000    52.43000000    -4.04000000
   H     42.58000000    52.76000000    -2.85000000
   H     41.90000000    52.20000000    -0.90000000
   H     40.72000000    50.95000000    -0.56000000
   N     45.26000000    52.04000000    -4.86000000
   C     46.03000000    52.71000000    -5.89000000
   C     45.74000000    54.20000000    -5.94000000
   O     46.27000000    54.90000000    -6.80000000
   H     45.60000000    51.96000000    -3.91000000
   H     45.85000000    52.32000000    -6.90000000
   H     47.08000000    52.54000000    -5.69000000
   N     45.10000000    54.69000000    -4.88000000
   C     44.87000000    56.07000000    -4.49000000
   C     45.61000000    56.46000000    -3.22000000
   O     45.80000000    55.66000000    -2.31000000
   C     43.37000000    56.35000000    -4.41000000
   C     42.79000000    56.29000000    -5.82000000
   O     42.67000000    55.34000000    -3.72000000
   H     44.69000000    54.01000000    -4.26000000
   H     45.29000000    56.69000000    -5.28000000
   H     43.14000000    57.36000000    -4.07000000
   H     41.73000000    55.53000000    -3.81000000
   H     43.37000000    56.90000000    -6.51000000
   H     42.89000000    55.27000000    -6.21000000
   H     41.77000000    56.65000000    -5.92000000
   N     46.13000000    57.68000000    -3.03000000
   C     46.84000000    58.18000000    -1.87000000
   C     45.87000000    59.03000000    -1.06000000
   O     44.91000000    59.57000000    -1.60000000
   C     48.04000000    58.96000000    -2.40000000
   C     49.14000000    58.12000000    -3.04000000
   C     48.66000000    59.91000000    -1.38000000
   C     49.78000000    57.02000000    -2.19000000
   H     45.99000000    58.34000000    -3.78000000
   H     47.20000000    57.36000000    -1.26000000
   H     47.68000000    59.61000000    -3.21000000
   H     50.01000000    58.70000000    -3.34000000
   H     48.74000000    57.68000000    -3.95000000
   H     48.23000000    60.90000000    -1.23000000
   H     48.74000000    59.37000000    -0.44000000
   H     49.68000000    60.17000000    -1.69000000
   H     50.62000000    56.52000000    -2.67000000
   H     50.12000000    57.43000000    -1.24000000
   H     49.05000000    56.30000000    -1.81000000
   N     46.02000000    59.13000000     0.26000000
   C     45.20000000    59.92000000     1.15000000
   C     46.18000000    60.53000000     2.15000000
   O     47.37000000    60.23000000     2.16000000
   C     44.16000000    59.03000000     1.83000000
   C     44.53000000    57.69000000     2.44000000
   O     44.39000000    56.62000000     1.82000000
   O     44.99000000    57.65000000     3.61000000
   H     46.86000000    58.82000000     0.74000000
   H     44.67000000    60.75000000     0.67000000
   H     43.51000000    58.78000000     0.99000000
   H     43.60000000    59.71000000     2.48000000
   N     45.74000000    61.47000000     2.99000000
   C     46.62000000    62.39000000     3.69000000
   C     47.76000000    61.78000000     4.51000000
   O     48.87000000    62.30000000     4.39000000
   C     45.83000000    63.44000000     4.45000000
   C     46.70000000    64.55000000     5.00000000
   C     47.43000000    65.37000000     4.13000000
   C     46.83000000    64.66000000     6.39000000
   C     48.24000000    66.34000000     4.72000000
   C     47.60000000    65.69000000     6.95000000
   C     48.37000000    66.49000000     6.11000000
   H     44.78000000    61.74000000     2.79000000
   H     47.22000000    62.91000000     2.94000000
   H     45.36000000    63.04000000     5.35000000
   H     45.06000000    63.84000000     3.80000000
   H     47.45000000    65.19000000     3.06000000
   H     46.30000000    64.01000000     7.07000000
   H     48.91000000    66.85000000     4.04000000
   H     47.60000000    65.73000000     8.03000000
   H     49.02000000    67.27000000     6.49000000
   N     47.46000000    60.81000000     5.37000000
   C     48.50000000    60.16000000     6.14000000
   C     49.64000000    59.48000000     5.41000000
   O     50.83000000    59.61000000     5.72000000
   C     47.74000000    59.23000000     7.08000000
   C     46.29000000    59.70000000     7.10000000
   C     46.16000000    60.25000000     5.68000000
   H     48.95000000    60.93000000     6.77000000
   H     47.69000000    58.25000000     6.60000000
   H     48.25000000    59.19000000     8.04000000
   H     45.59000000    58.91000000     7.39000000
   H     46.11000000    60.51000000     7.82000000
   H     45.92000000    59.46000000     4.97000000
   H     45.33000000    60.96000000     5.67000000
   N     49.33000000    58.91000000     4.24000000
   C     50.26000000    58.40000000     3.25000000
   C     50.93000000    59.57000000     2.55000000
   O     52.06000000    59.34000000     2.13000000
   C     49.50000000    57.55000000     2.24000000
   C     48.61000000    56.45000000     2.83000000
   C     47.62000000    55.73000000     1.93000000
   O     47.40000000    56.02000000     0.73000000
   O     47.04000000    54.68000000     2.28000000
   H     48.35000000    58.80000000     4.04000000
   H     51.07000000    57.83000000     3.69000000
   H     50.28000000    57.07000000     1.65000000
   H     48.94000000    58.19000000     1.55000000
   H     47.88000000    57.00000000     3.42000000
   H     49.18000000    55.68000000     3.35000000
   N     50.28000000    60.69000000     2.20000000
   C     50.90000000    61.77000000     1.46000000
   H     51.89300000    61.46200000     1.13300000
   H     50.29000000    62.01200000     0.59000000
   H     50.98500000    62.64800000     2.10000000
   H     49.32000000    60.78000000     2.50000000
  Ca     45.32000000    54.75000000     0.27000000
   O     42.99000000    55.67000000    -0.83500000
   H     42.13000000    55.76000000    -0.41500000
   H     42.82000000    55.82000000    -1.76500000

Ca 1.00



