%chk=loop2.apoCaM-CA-Ng.Init31.run83.water3.chk
%nprocshared=20
%mem=10GB
%nosave
#b3lyp/svp scf=(tight,noincore,xqc) Test 
#IOP(5/87=12) Density=Current Pop=(MK,readradii) iop(6/33=2) iop(6/42=6)

loop2.apoCaM-CA-Ng.Init31.run83.water3 

   -2  1 
   C     79.71000000    55.14000000    -0.39000000
   C     79.34000000    53.81000000    -1.03000000
   O     78.33000000    53.64000000    -1.69000000
   H     80.61000000    55.53200000    -0.86300000
   H     78.89200000    55.84800000    -0.52300000
   H     79.89400000    54.99300000     0.67400000
   N     80.19000000    52.78000000    -0.92000000
   C     81.62000000    52.68000000    -0.69000000
   C     82.03000000    51.92000000     0.56000000
   O     82.31000000    50.73000000     0.45000000
   C     82.49000000    52.26000000    -1.87000000
   C     82.03000000    51.05000000    -2.68000000
   O     81.12000000    50.33000000    -2.22000000
   O     82.54000000    50.95000000    -3.82000000
   H     79.82000000    51.87000000    -1.15000000
   H     81.96000000    53.69000000    -0.43000000
   H     83.52000000    52.11000000    -1.56000000
   H     82.40000000    53.13000000    -2.53000000
   N     81.92000000    52.63000000     1.69000000
   C     82.30000000    52.12000000     2.99000000
   C     81.65000000    50.81000000     3.43000000
   O     82.27000000    50.09000000     4.20000000
   C     82.14000000    53.18000000     4.08000000
   H     81.62000000    53.59000000     1.71000000
   H     83.36000000    51.88000000     3.06000000
   H     82.61000000    52.80000000     4.99000000
   H     82.64000000    54.11000000     3.83000000
   H     81.10000000    53.46000000     4.25000000
   N     80.40000000    50.57000000     3.05000000
   C     79.43000000    49.61000000     3.57000000
   C     79.71000000    48.15000000     3.26000000
   O     80.33000000    47.76000000     2.27000000
   C     78.05000000    50.06000000     3.11000000
   C     77.89000000    50.07000000     1.59000000
   O     78.80000000    49.81000000     0.77000000
   O     76.78000000    50.46000000     1.18000000
   H     80.03000000    51.16000000     2.32000000
   H     79.47000000    49.66000000     4.65000000
   H     77.89000000    51.07000000     3.49000000
   H     77.31000000    49.40000000     3.55000000
   N     79.29000000    47.26000000     4.16000000
   C     79.27000000    45.83000000     3.94000000
   C     78.26000000    45.43000000     2.88000000
   O     77.30000000    46.16000000     2.65000000
   H     78.57000000    47.56000000     4.81000000
   H     78.97000000    45.23000000     4.81000000
   H     80.27000000    45.53000000     3.62000000
   N     78.44000000    44.23000000     2.33000000
   C     77.76000000    43.75000000     1.13000000
   C     77.44000000    42.27000000     1.10000000
   O     78.21000000    41.50000000     1.67000000
   C     78.60000000    44.07000000    -0.10000000
   C     78.60000000    45.53000000    -0.53000000
   N     77.61000000    45.82000000    -1.37000000
   O     79.42000000    46.35000000    -0.13000000
   H     79.14000000    43.61000000     2.71000000
   H     76.82000000    44.28000000     0.97000000
   H     78.28000000    43.60000000    -1.02000000
   H     79.65000000    43.77000000    -0.04000000
   H     76.79000000    45.25000000    -1.54000000
   H     77.45000000    46.76000000    -1.72000000
   N     76.43000000    41.83000000     0.34000000
   C     76.18000000    40.45000000    -0.04000000
   C     75.88000000    39.57000000     1.16000000
   O     76.75000000    38.75000000     1.45000000
   H     75.91000000    42.56000000    -0.14000000
   H     77.14000000    40.21000000    -0.49000000
   H     75.39000000    40.29000000    -0.78000000
   N     74.81000000    39.72000000     1.94000000
   C     73.77000000    40.74000000     1.90000000
   C     73.86000000    41.78000000     3.00000000
   O     73.27000000    42.85000000     2.88000000
   C     72.39000000    40.09000000     1.99000000
   C     72.04000000    39.11000000     0.87000000
   O     72.35000000    39.41000000     3.22000000
   H     74.62000000    39.08000000     2.70000000
   H     73.74000000    41.25000000     0.94000000
   H     71.58000000    40.82000000     2.03000000
   H     71.43000000    39.33000000     3.47000000
   H     71.16000000    38.49000000     1.06000000
   H     71.89000000    39.72000000    -0.02000000
   H     72.91000000    38.56000000     0.52000000
   N     74.41000000    41.48000000     4.18000000
   C     74.26000000    42.16000000     5.45000000
   C     72.79000000    42.12000000     5.84000000
   O     72.04000000    43.04000000     5.53000000
   C     75.02000000    43.48000000     5.46000000
   C     76.52000000    43.32000000     5.22000000
   C     74.88000000    44.20000000     6.80000000
   C     77.23000000    42.03000000     5.61000000
   H     74.97000000    40.64000000     4.24000000
   H     74.80000000    41.47000000     6.10000000
   H     74.67000000    44.12000000     4.64000000
   H     77.09000000    44.07000000     5.76000000
   H     76.76000000    43.56000000     4.18000000
   H     75.17000000    43.56000000     7.63000000
   H     75.53000000    45.08000000     6.84000000
   H     73.89000000    44.60000000     6.99000000
   H     78.30000000    42.11000000     5.75000000
   H     76.85000000    41.81000000     6.61000000
   H     76.98000000    41.13000000     5.05000000
   N     72.22000000    41.00000000     6.31000000
   C     72.96000000    39.84000000     6.77000000
   C     73.67000000    40.00000000     8.10000000
   O     74.83000000    39.59000000     8.19000000
   C     72.05000000    38.61000000     6.90000000
   C     70.69000000    38.63000000     7.58000000
   O     70.22000000    39.75000000     7.87000000
   O     70.02000000    37.58000000     7.67000000
   H     71.22000000    41.00000000     6.41000000
   H     73.71000000    39.59000000     6.02000000
   H     72.63000000    37.81000000     7.34000000
   H     71.99000000    38.29000000     5.86000000
   N     72.97000000    40.59000000     9.07000000
   C     73.45000000    40.97000000    10.39000000
   C     72.86000000    40.10000000    11.49000000
   O     71.92000000    39.34000000    11.26000000
   C     73.25000000    42.47000000    10.52000000
   C     71.84000000    43.01000000    10.60000000
   C     71.08000000    43.24000000     9.45000000
   C     71.30000000    43.20000000    11.88000000
   C     69.76000000    43.68000000     9.59000000
   C     70.02000000    43.75000000    12.04000000
   C     69.25000000    43.92000000    10.88000000
   H     72.02000000    40.84000000     8.84000000
   H     74.52000000    40.78000000    10.46000000
   H     73.71000000    42.94000000     9.65000000
   H     73.85000000    42.81000000    11.37000000
   H     71.48000000    43.14000000     8.45000000
   H     71.95000000    42.97000000    12.71000000
   H     69.12000000    43.77000000     8.73000000
   H     69.52000000    43.93000000    12.98000000
   H     68.23000000    44.22000000    11.03000000
   N     73.49000000    39.99000000    12.67000000
   C     74.60000000    40.77000000    13.17000000
   C     75.93000000    40.19000000    12.70000000
   O     75.97000000    39.31000000    11.85000000
   C     74.46000000    40.60000000    14.68000000
   C     74.03000000    39.15000000    14.87000000
   C     73.07000000    39.04000000    13.68000000
   H     74.49000000    41.83000000    12.93000000
   H     75.38000000    40.75000000    15.24000000
   H     73.74000000    41.27000000    15.15000000
   H     74.86000000    38.48000000    14.67000000
   H     73.48000000    39.00000000    15.80000000
   H     73.28000000    38.09000000    13.18000000
   H     72.10000000    39.22000000    14.13000000
   N     77.07000000    40.64000000    13.24000000
   C     78.42000000    40.43000000    12.76000000
   C     79.29000000    41.65000000    12.51000000
   O     80.51000000    41.51000000    12.58000000
   C     79.10000000    39.41000000    13.66000000
   C     78.33000000    38.09000000    13.68000000
   C     78.89000000    37.10000000    14.69000000
   O     79.99000000    36.58000000    14.41000000
   O     78.12000000    36.66000000    15.57000000
   H     77.09000000    41.30000000    14.00000000
   H     78.24000000    39.93000000    11.80000000
   H     79.33000000    39.75000000    14.67000000
   H     80.07000000    39.12000000    13.26000000
   H     78.41000000    37.67000000    12.68000000
   H     77.24000000    38.20000000    13.67000000
   N     78.77000000    42.85000000    12.25000000
   C     77.45000000    43.40000000    12.04000000
   H     76.76800000    43.00300000    12.79200000
   H     77.49100000    44.48600000    12.12400000
   H     77.09500000    43.12500000    11.04700000
   H     79.53000000    43.51000000    12.34000000
  Ca     80.75000000    48.61000000    -0.34500000
   O     81.56000000    46.97000000    -2.43500000
   H     81.27000000    47.16000000    -3.32500000
   H     82.50000000    46.81000000    -2.51500000
   O     83.04000000    47.76000000     0.43000000
   H     83.81000000    48.00000000     0.93000000
   H     83.24000000    46.89000000     0.08000000
   O     78.45000000    48.49000000    -1.98500000
   H     78.18000000    48.91000000    -2.79500000
   H     77.99000000    48.96000000    -1.29500000

Ca 1.00



