%chk=loop3.apoCaM-CA-Ng.Init31.run3.water6.chk
%nprocshared=20
%mem=10GB
%nosave
#b3lyp/svp scf=(tight,noincore,xqc) Test 
#IOP(5/87=12) Density=Current Pop=(MK,readradii) iop(6/33=2) iop(6/42=6)

loop3.apoCaM-CA-Ng.Init31.run3.water6 

   0  1 
   C     72.05000000    55.82000000    41.88000000
   C     72.19000000    54.42000000    42.45000000
   O     71.20000000    53.71000000    42.64000000
   H     71.25700000    56.34900000    42.40900000
   H     72.99000000    56.35800000    42.00200000
   H     71.80100000    55.75800000    40.82100000
   N     73.40000000    54.00000000    42.84000000
   C     73.83000000    52.66000000    43.17000000
   C     73.38000000    52.27000000    44.57000000
   O     73.10000000    51.11000000    44.87000000
   C     75.34000000    52.42000000    43.03000000
   C     75.92000000    52.88000000    41.70000000
   O     76.25000000    52.00000000    40.88000000
   O     75.97000000    54.09000000    41.40000000
   H     74.15000000    54.65000000    42.65000000
   H     73.34000000    51.99000000    42.46000000
   H     75.54000000    51.35000000    43.05000000
   H     75.71000000    52.95000000    43.91000000
   N     73.02000000    53.26000000    45.39000000
   C     72.32000000    53.13000000    46.65000000
   C     73.14000000    52.27000000    47.61000000
   O     74.35000000    52.39000000    47.73000000
   C     72.20000000    54.49000000    47.34000000
   C     71.26000000    55.50000000    46.70000000
   C     71.23000000    56.89000000    47.35000000
   C     70.09000000    57.74000000    46.81000000
   N     69.65000000    58.72000000    47.81000000
   H     73.09000000    54.22000000    45.07000000
   H     71.37000000    52.65000000    46.42000000
   H     73.21000000    54.90000000    47.32000000
   H     71.77000000    54.38000000    48.34000000
   H     70.24000000    55.11000000    46.74000000
   H     71.52000000    55.61000000    45.65000000
   H     72.20000000    57.34000000    47.11000000
   H     71.22000000    56.85000000    48.44000000
   H     69.25000000    57.06000000    46.60000000
   H     70.34000000    58.27000000    45.89000000
   H     69.06000000    58.27000000    48.50000000
   H     70.44000000    59.11000000    48.31000000
   H     69.17000000    59.50000000    47.37000000
   N     72.40000000    51.42000000    48.33000000
   C     72.88000000    50.32000000    49.15000000
   C     73.21000000    49.04000000    48.39000000
   O     73.54000000    48.04000000    49.04000000
   C     71.96000000    50.17000000    50.35000000
   C     71.71000000    51.48000000    51.08000000
   O     72.70000000    52.17000000    51.43000000
   O     70.56000000    51.76000000    51.48000000
   H     71.41000000    51.58000000    48.25000000
   H     73.84000000    50.59000000    49.59000000
   H     72.38000000    49.44000000    51.05000000
   H     71.10000000    49.60000000    49.99000000
   N     73.04000000    49.07000000    47.07000000
   C     73.30000000    47.92000000    46.22000000
   C     74.74000000    47.88000000    45.73000000
   O     75.53000000    48.79000000    45.94000000
   H     72.77000000    49.96000000    46.68000000
   H     72.55000000    47.86000000    45.43000000
   H     73.13000000    46.99000000    46.76000000
   N     75.08000000    46.82000000    44.99000000
   C     74.25000000    45.71000000    44.59000000
   C     74.78000000    45.16000000    43.26000000
   O     75.38000000    44.10000000    43.24000000
   C     74.30000000    44.64000000    45.68000000
   C     73.20000000    43.61000000    45.51000000
   N     73.09000000    42.59000000    46.37000000
   O     72.31000000    43.71000000    44.66000000
   H     76.03000000    46.76000000    44.63000000
   H     73.26000000    46.15000000    44.55000000
   H     74.18000000    45.12000000    46.65000000
   H     75.25000000    44.12000000    45.59000000
   H     73.58000000    42.51000000    47.25000000
   H     72.48000000    41.87000000    46.02000000
   N     74.54000000    45.81000000    42.12000000
   C     73.84000000    47.07000000    41.93000000
   C     72.32000000    46.93000000    41.95000000
   O     71.63000000    47.88000000    41.59000000
   H     74.95000000    45.44000000    41.28000000
   H     74.05000000    47.28000000    40.88000000
   H     74.27000000    47.85000000    42.55000000
   N     71.72000000    45.83000000    42.40000000
   C     70.28000000    45.64000000    42.50000000
   C     69.76000000    46.08000000    43.86000000
   O     70.46000000    46.35000000    44.84000000
   C     69.91000000    44.19000000    42.20000000
   C     70.46000000    43.55000000    40.95000000
   C     70.02000000    44.07000000    39.73000000
   C     71.44000000    42.55000000    41.01000000
   C     70.65000000    43.64000000    38.55000000
   C     72.07000000    42.09000000    39.85000000
   C     71.67000000    42.67000000    38.62000000
   O     72.19000000    42.26000000    37.43000000
   H     72.19000000    44.98000000    42.67000000
   H     69.73000000    46.23000000    41.76000000
   H     68.83000000    44.18000000    42.12000000
   H     70.23000000    43.59000000    43.06000000
   H     69.09000000    44.63000000    39.68000000
   H     71.63000000    42.09000000    41.97000000
   H     70.34000000    44.04000000    37.60000000
   H     72.78000000    41.28000000    39.91000000
   H     72.78000000    41.51000000    37.57000000
   N     68.46000000    46.35000000    43.97000000
   C     67.74000000    46.70000000    45.18000000
   C     66.76000000    45.59000000    45.53000000
   O     66.06000000    45.00000000    44.71000000
   C     67.07000000    48.07000000    45.11000000
   C     68.04000000    49.23000000    44.97000000
   C     65.92000000    48.17000000    44.11000000
   C     68.99000000    49.45000000    46.14000000
   H     67.97000000    46.36000000    43.09000000
   H     68.46000000    46.81000000    46.00000000
   H     66.57000000    48.22000000    46.07000000
   H     67.39000000    50.09000000    44.80000000
   H     68.66000000    49.11000000    44.08000000
   H     66.24000000    48.11000000    43.07000000
   H     65.15000000    47.43000000    44.33000000
   H     65.51000000    49.17000000    44.17000000
   H     69.57000000    50.37000000    46.01000000
   H     68.47000000    49.57000000    47.09000000
   H     69.76000000    48.68000000    46.18000000
   N     66.77000000    45.27000000    46.83000000
   C     65.93000000    44.32000000    47.53000000
   C     64.45000000    44.63000000    47.68000000
   O     63.72000000    44.87000000    46.72000000
   C     66.21000000    42.90000000    47.03000000
   O     67.53000000    42.53000000    47.34000000
   H     67.39000000    45.82000000    47.41000000
   H     66.35000000    44.27000000    48.54000000
   H     66.14000000    42.95000000    45.95000000
   H     65.52000000    42.15000000    47.40000000
   H     68.05000000    43.14000000    46.81000000
   N     64.01000000    44.41000000    48.92000000
   C     62.70000000    44.61000000    49.50000000
   C     62.63000000    45.90000000    50.31000000
   O     63.55000000    46.32000000    51.01000000
   C     62.40000000    43.34000000    50.29000000
   H     64.75000000    44.20000000    49.59000000
   H     62.03000000    44.58000000    48.65000000
   H     63.10000000    43.35000000    51.13000000
   H     61.33000000    43.32000000    50.50000000
   H     62.63000000    42.41000000    49.76000000
   N     61.46000000    46.54000000    50.43000000
   C     61.22000000    47.75000000    51.19000000
   C     62.10000000    48.94000000    50.86000000
   O     62.27000000    49.85000000    51.67000000
   C     61.21000000    47.41000000    52.68000000
   H     60.70000000    46.23000000    49.84000000
   H     60.19000000    48.01000000    50.92000000
   H     60.82000000    48.26000000    53.23000000
   H     60.57000000    46.57000000    52.96000000
   H     62.23000000    47.34000000    53.06000000
   N     62.60000000    49.05000000    49.63000000
   C     63.38000000    50.22000000    49.26000000
   C     62.56000000    51.02000000    48.26000000
   O     62.60000000    52.25000000    48.32000000
   C     64.68000000    49.76000000    48.62000000
   C     65.79000000    50.80000000    48.72000000
   C     66.49000000    50.61000000    50.06000000
   O     67.70000000    50.29000000    50.11000000
   O     65.92000000    50.78000000    51.17000000
   H     62.59000000    48.24000000    49.02000000
   H     63.59000000    50.85000000    50.13000000
   H     64.52000000    49.55000000    47.57000000
   H     65.08000000    48.79000000    48.94000000
   H     65.54000000    51.83000000    48.50000000
   H     66.52000000    50.59000000    47.94000000
   N     61.87000000    50.30000000    47.38000000
   C     60.96000000    50.91000000    46.44000000
   H     60.07800000    51.26900000    46.97000000
   H     61.45300000    51.74800000    45.94700000
   H     60.66000000    50.17400000    45.69400000
   H     61.98000000    49.29000000    47.38000000
  Ca     68.37000000    50.83000000    52.51000000
   O     67.11000000    48.69000000    53.36000000
   H     66.97000000    48.60000000    54.30000000
   H     66.67000000    47.93000000    52.98000000
   O     66.68000000    51.58000000    54.66000000
   H     66.75000000    51.16000000    55.52000000
   H     65.83000000    52.02000000    54.67000000
   O     69.78000000    50.00000000    54.65000000
   H     70.61000000    50.43000000    54.83000000
   H     69.61000000    49.45000000    55.41000000
   O     69.15000000    52.93000000    53.83000000
   H     70.05000000    52.63000000    53.89000000
   H     69.22000000    53.87000000    53.64000000
   O     69.73000000    48.41000000    52.03000000
   H     70.33000000    48.01000000    51.40000000
   H     69.70000000    47.79000000    52.76000000
   O     67.01000000    53.30000000    51.45000000
   H     66.19000000    52.83000000    51.25000000
   H     66.73000000    54.07000000    51.95000000

Ca 1.00



