%chk=loop2.holoCaM-CaMKII.run95.water2.chk
%nprocshared=20
%mem=10GB
%nosave
#b3lyp/svp scf=(tight,noincore,xqc) Test 
#IOP(5/87=12) Density=Current Pop=(MK,readradii) iop(6/33=2) iop(6/42=6)

loop2.holoCaM-CaMKII.run95.water2 

   -2  1 
   C     46.06000000    25.12000000   -24.22000000
   C     46.52000000    23.88000000   -24.98000000
   O     47.64000000    23.93000000   -25.49000000
   H     45.05900000    24.95100000   -23.82300000
   H     46.74800000    25.31900000   -23.39800000
   H     46.04300000    25.97500000   -24.89500000
   N     45.70000000    22.84000000   -25.13000000
   C     45.94000000    21.72000000   -26.00000000
   C     46.29000000    22.22000000   -27.40000000
   O     45.47000000    22.80000000   -28.10000000
   C     44.64000000    20.92000000   -26.04000000
   C     44.76000000    19.71000000   -26.95000000
   O     45.86000000    19.32000000   -27.41000000
   O     43.66000000    19.20000000   -27.26000000
   H     44.73000000    23.07000000   -24.96000000
   H     46.73000000    21.13000000   -25.54000000
   H     43.86000000    21.61000000   -26.36000000
   H     44.46000000    20.58000000   -25.02000000
   N     47.52000000    21.89000000   -27.82000000
   C     48.29000000    22.47000000   -28.90000000
   C     47.97000000    21.82000000   -30.24000000
   O     47.91000000    22.52000000   -31.25000000
   C     49.74000000    22.43000000   -28.42000000
   H     47.97000000    21.10000000   -27.40000000
   H     48.00000000    23.51000000   -29.04000000
   H     49.94000000    21.40000000   -28.13000000
   H     50.33000000    22.85000000   -29.24000000
   H     49.82000000    23.02000000   -27.51000000
   N     47.65000000    20.52000000   -30.34000000
   C     47.19000000    19.92000000   -31.57000000
   C     45.67000000    19.91000000   -31.60000000
   O     45.06000000    19.64000000   -32.63000000
   C     47.69000000    18.52000000   -31.92000000
   C     47.56000000    17.48000000   -30.82000000
   O     47.84000000    16.29000000   -31.11000000
   O     47.15000000    17.79000000   -29.68000000
   H     47.76000000    20.01000000   -29.47000000
   H     47.44000000    20.50000000   -32.46000000
   H     48.72000000    18.54000000   -32.29000000
   H     47.29000000    18.16000000   -32.87000000
   N     45.00000000    20.17000000   -30.47000000
   C     43.55000000    20.18000000   -30.36000000
   C     42.89000000    18.83000000   -30.57000000
   O     41.99000000    18.69000000   -31.40000000
   H     45.49000000    20.36000000   -29.62000000
   H     43.18000000    20.76000000   -31.21000000
   H     43.25000000    20.65000000   -29.42000000
   N     43.29000000    17.82000000   -29.80000000
   C     42.66000000    16.51000000   -29.85000000
   C     41.97000000    16.10000000   -28.56000000
   O     41.60000000    14.93000000   -28.42000000
   C     43.72000000    15.52000000   -30.31000000
   C     44.79000000    15.19000000   -29.28000000
   N     45.30000000    13.97000000   -29.41000000
   O     45.13000000    15.94000000   -28.37000000
   H     44.08000000    17.97000000   -29.19000000
   H     41.88000000    16.46000000   -30.60000000
   H     44.11000000    15.94000000   -31.24000000
   H     43.14000000    14.62000000   -30.52000000
   H     45.03000000    13.27000000   -30.09000000
   H     45.86000000    13.68000000   -28.62000000
   N     41.74000000    17.05000000   -27.65000000
   C     40.92000000    16.81000000   -26.48000000
   C     41.65000000    16.22000000   -25.29000000
   O     41.16000000    16.10000000   -24.17000000
   H     42.37000000    17.83000000   -27.73000000
   H     40.16000000    16.06000000   -26.71000000
   H     40.44000000    17.70000000   -26.06000000
   N     42.95000000    15.93000000   -25.41000000
   C     43.85000000    15.43000000   -24.39000000
   C     45.13000000    16.25000000   -24.24000000
   O     45.70000000    16.66000000   -25.25000000
   C     44.11000000    13.97000000   -24.76000000
   C     42.97000000    13.02000000   -24.39000000
   O     44.53000000    13.73000000   -26.08000000
   H     43.47000000    16.00000000   -26.27000000
   H     43.37000000    15.38000000   -23.41000000
   H     45.01000000    13.73000000   -24.19000000
   H     45.40000000    14.14000000   -26.16000000
   H     42.80000000    13.04000000   -23.32000000
   H     42.06000000    13.19000000   -24.98000000
   H     43.36000000    12.02000000   -24.56000000
   N     45.47000000    16.43000000   -22.97000000
   C     46.71000000    17.06000000   -22.56000000
   C     47.79000000    15.98000000   -22.62000000
   O     47.73000000    14.97000000   -21.92000000
   C     46.49000000    17.71000000   -21.19000000
   C     45.62000000    18.96000000   -21.24000000
   C     47.70000000    17.96000000   -20.29000000
   C     46.26000000    20.05000000   -22.09000000
   H     44.75000000    16.15000000   -22.32000000
   H     47.04000000    17.75000000   -23.33000000
   H     45.93000000    17.02000000   -20.56000000
   H     45.42000000    19.30000000   -20.23000000
   H     44.71000000    18.69000000   -21.77000000
   H     47.36000000    18.23000000   -19.30000000
   H     48.24000000    17.02000000   -20.27000000
   H     48.27000000    18.85000000   -20.58000000
   H     45.69000000    20.98000000   -22.13000000
   H     47.14000000    20.32000000   -21.50000000
   H     46.70000000    19.74000000   -23.04000000
   N     48.84000000    16.25000000   -23.39000000
   C     50.17000000    15.67000000   -23.29000000
   C     51.06000000    16.52000000   -22.39000000
   O     50.75000000    17.69000000   -22.16000000
   C     50.89000000    15.72000000   -24.63000000
   C     50.06000000    15.20000000   -25.79000000
   O     49.78000000    13.98000000   -25.78000000
   O     49.47000000    16.03000000   -26.52000000
   H     48.85000000    17.19000000   -23.76000000
   H     50.08000000    14.67000000   -22.86000000
   H     51.80000000    15.15000000   -24.45000000
   H     51.11000000    16.77000000   -24.84000000
   N     52.18000000    16.02000000   -21.86000000
   C     53.10000000    16.80000000   -21.08000000
   C     53.73000000    18.06000000   -21.67000000
   O     53.75000000    19.04000000   -20.94000000
   C     54.20000000    15.84000000   -20.64000000
   C     55.40000000    16.54000000   -20.04000000
   C     56.65000000    16.66000000   -20.66000000
   C     55.26000000    16.98000000   -18.72000000
   C     57.72000000    17.24000000   -19.96000000
   C     56.32000000    17.60000000   -18.06000000
   C     57.59000000    17.71000000   -18.64000000
   H     52.50000000    15.10000000   -22.15000000
   H     52.47000000    17.20000000   -20.29000000
   H     54.60000000    15.26000000   -21.47000000
   H     53.71000000    15.20000000   -19.90000000
   H     56.83000000    16.33000000   -21.67000000
   H     54.29000000    16.81000000   -18.27000000
   H     58.70000000    17.38000000   -20.37000000
   H     56.23000000    18.02000000   -17.07000000
   H     58.43000000    18.00000000   -18.03000000
   N     54.06000000    18.22000000   -22.96000000
   C     54.35000000    19.51000000   -23.54000000
   C     53.23000000    20.54000000   -23.47000000
   O     53.57000000    21.72000000   -23.56000000
   C     54.76000000    19.22000000   -24.97000000
   C     55.22000000    17.77000000   -24.93000000
   C     54.34000000    17.12000000   -23.86000000
   H     55.27000000    19.85000000   -23.07000000
   H     53.91000000    19.28000000   -25.65000000
   H     55.59000000    19.89000000   -25.23000000
   H     55.06000000    17.31000000   -25.90000000
   H     56.27000000    17.70000000   -24.62000000
   H     53.44000000    16.76000000   -24.35000000
   H     54.87000000    16.32000000   -23.36000000
   N     51.98000000    20.14000000   -23.25000000
   C     50.78000000    20.93000000   -23.02000000
   C     50.63000000    21.15000000   -21.52000000
   O     50.37000000    22.28000000   -21.11000000
   C     49.57000000    20.39000000   -23.78000000
   C     49.79000000    20.29000000   -25.29000000
   C     49.02000000    19.14000000   -25.91000000
   O     49.02000000    19.05000000   -27.16000000
   O     48.26000000    18.46000000   -25.18000000
   H     51.81000000    19.14000000   -23.22000000
   H     51.04000000    21.91000000   -23.42000000
   H     48.65000000    20.95000000   -23.63000000
   H     49.47000000    19.43000000   -23.27000000
   H     50.82000000    20.24000000   -25.63000000
   H     49.41000000    21.22000000   -25.71000000
   N     50.85000000    20.12000000   -20.70000000
   C     50.80000000    20.25000000   -19.26000000
   H     49.86000000    20.71900000   -18.97100000
   H     50.86900000    19.26300000   -18.80300000
   H     51.63200000    20.86700000   -18.92100000
   H     51.06000000    19.22000000   -21.10000000
  Ca     47.20000000    17.08000000   -27.28000000
   O     48.00000000    15.05000000   -28.73000000
   H     48.28000000    14.15000000   -28.88000000
   H     47.91000000    15.42000000   -29.61000000
   O     47.20000000    14.16000000   -26.19000000
   H     47.16000000    13.31000000   -26.62000000
   H     48.10000000    14.23000000   -25.87000000

Ca 1.00



