%chk=loop4.apoCaM-CA-Ng.Init31.run43.water3.chk
%nprocshared=20
%mem=10GB
%nosave
#b3lyp/svp scf=(tight,noincore,xqc) Test 
#IOP(5/87=12) Density=Current Pop=(MK,readradii) iop(6/33=2) iop(6/42=6)

loop4.apoCaM-CA-Ng.Init31.run43.water3 

   -3  1 
   C     82.47000000    44.12000000     1.14000000
   C     83.81000000    43.61000000     0.63000000
   O     84.81000000    44.32000000     0.58000000
   H     81.70800000    43.35600000     0.98400000
   H     82.54700000    44.34400000     2.20400000
   H     82.19400000    45.02400000     0.59700000
   N     83.93000000    42.33000000     0.28000000
   C     83.01000000    41.26000000    -0.04000000
   C     83.19000000    39.99000000     0.78000000
   O     82.32000000    39.13000000     0.71000000
   C     82.96000000    40.87000000    -1.52000000
   C     82.76000000    42.03000000    -2.49000000
   O     82.07000000    43.02000000    -2.19000000
   O     83.08000000    41.92000000    -3.70000000
   H     84.87000000    42.20000000    -0.06000000
   H     81.99000000    41.59000000     0.18000000
   H     82.15000000    40.15000000    -1.54000000
   H     83.88000000    40.34000000    -1.73000000
   N     84.23000000    39.96000000     1.61000000
   C     84.49000000    38.90000000     2.56000000
   C     84.36000000    37.48000000     2.02000000
   O     83.81000000    36.56000000     2.63000000
   C     85.92000000    39.01000000     3.08000000
   C     86.38000000    40.35000000     3.64000000
   C     86.17000000    37.91000000     4.10000000
   C     85.64000000    40.85000000     4.88000000
   H     85.05000000    40.52000000     1.39000000
   H     83.79000000    38.98000000     3.39000000
   H     86.66000000    38.75000000     2.33000000
   H     86.21000000    41.10000000     2.87000000
   H     87.42000000    40.28000000     3.96000000
   H     85.57000000    38.05000000     5.00000000
   H     86.19000000    36.89000000     3.72000000
   H     87.14000000    38.03000000     4.57000000
   H     85.87000000    41.91000000     4.96000000
   H     84.56000000    40.74000000     4.82000000
   H     85.99000000    40.44000000     5.82000000
   N     84.81000000    37.31000000     0.77000000
   C     84.85000000    36.05000000     0.06000000
   C     84.52000000    36.24000000    -1.41000000
   O     84.07000000    35.28000000    -2.03000000
   C     86.25000000    35.50000000     0.30000000
   C     86.38000000    34.04000000    -0.12000000
   O     87.50000000    33.53000000    -0.34000000
   O     85.40000000    33.27000000    -0.14000000
   H     85.24000000    38.09000000     0.30000000
   H     84.10000000    35.42000000     0.55000000
   H     86.54000000    35.55000000     1.35000000
   H     87.02000000    36.11000000    -0.18000000
   N     84.59000000    37.44000000    -2.00000000
   C     84.26000000    37.74000000    -3.37000000
   C     85.34000000    37.25000000    -4.33000000
   O     86.25000000    36.53000000    -3.93000000
   H     85.14000000    38.11000000    -1.48000000
   H     84.14000000    38.82000000    -3.45000000
   H     83.32000000    37.27000000    -3.64000000
   N     85.18000000    37.68000000    -5.58000000
   C     86.04000000    37.37000000    -6.71000000
   C     85.43000000    36.46000000    -7.76000000
   O     84.21000000    36.31000000    -7.74000000
   C     86.56000000    38.69000000    -7.27000000
   C     85.43000000    39.57000000    -7.76000000
   O     85.07000000    40.48000000    -6.97000000
   O     84.91000000    39.44000000    -8.89000000
   H     84.29000000    38.14000000    -5.72000000
   H     86.89000000    36.82000000    -6.31000000
   H     87.34000000    38.49000000    -8.01000000
   H     87.02000000    39.20000000    -6.42000000
   N     86.14000000    35.80000000    -8.69000000
   C     87.57000000    35.72000000    -8.88000000
   C     88.17000000    34.50000000    -8.19000000
   O     87.53000000    33.62000000    -7.62000000
   H     85.52000000    35.16000000    -9.16000000
   H     88.08000000    36.68000000    -8.77000000
   H     87.84000000    35.57000000    -9.93000000
   N     89.48000000    34.27000000    -8.23000000
   C     90.60000000    35.14000000    -8.53000000
   C     90.62000000    36.47000000    -7.78000000
   O     89.70000000    36.79000000    -7.03000000
   C     90.74000000    35.33000000   -10.03000000
   C     91.25000000    34.08000000   -10.75000000
   C     91.28000000    34.26000000   -12.26000000
   N     90.12000000    34.08000000   -12.91000000
   O     92.30000000    34.43000000   -12.92000000
   H     89.78000000    33.35000000    -7.94000000
   H     91.42000000    34.47000000    -8.28000000
   H     91.30000000    36.22000000   -10.31000000
   H     89.74000000    35.49000000   -10.44000000
   H     90.65000000    33.21000000   -10.47000000
   H     92.25000000    33.90000000   -10.36000000
   H     89.25000000    34.01000000   -12.41000000
   H     90.03000000    34.13000000   -13.91000000
   N     91.69000000    37.23000000    -8.00000000
   C     91.78000000    38.67000000    -7.83000000
   C     93.02000000    39.19000000    -7.12000000
   O     94.08000000    38.58000000    -7.10000000
   C     91.63000000    39.46000000    -9.13000000
   C     90.25000000    39.32000000    -9.75000000
   C     92.58000000    39.01000000   -10.24000000
   H     92.49000000    36.81000000    -8.45000000
   H     90.91000000    39.10000000    -7.35000000
   H     91.82000000    40.52000000    -8.90000000
   H     90.19000000    39.80000000   -10.73000000
   H     89.99000000    38.28000000    -9.95000000
   H     89.50000000    39.76000000    -9.09000000
   H     92.38000000    39.54000000   -11.17000000
   H     93.59000000    39.29000000    -9.96000000
   H     92.49000000    37.93000000   -10.33000000
   N     92.85000000    40.30000000    -6.40000000
   C     93.90000000    41.26000000    -6.13000000
   C     94.01000000    42.31000000    -7.23000000
   O     94.98000000    43.06000000    -7.30000000
   C     93.57000000    41.84000000    -4.75000000
   C     94.68000000    42.72000000    -4.21000000
   N     94.40000000    44.02000000    -4.12000000
   O     95.78000000    42.32000000    -3.83000000
   H     91.90000000    40.63000000    -6.30000000
   H     94.88000000    40.82000000    -5.99000000
   H     93.38000000    41.03000000    -4.06000000
   H     92.71000000    42.50000000    -4.86000000
   H     93.62000000    44.44000000    -4.60000000
   H     95.22000000    44.59000000    -3.90000000
   N     92.96000000    42.42000000    -8.05000000
   C     92.85000000    43.36000000    -9.14000000
   C     91.44000000    43.87000000    -9.39000000
   O     90.54000000    43.04000000    -9.47000000
   C     93.64000000    42.90000000   -10.37000000
   C     93.57000000    43.81000000   -11.57000000
   C     92.65000000    43.45000000   -12.55000000
   C     94.44000000    44.88000000   -11.86000000
   C     92.53000000    44.29000000   -13.67000000
   C     94.55000000    45.56000000   -13.07000000
   C     93.52000000    45.24000000   -13.99000000
   O     93.46000000    45.87000000   -15.19000000
   H     92.16000000    41.82000000    -7.89000000
   H     93.43000000    44.23000000    -8.84000000
   H     93.30000000    41.91000000   -10.68000000
   H     94.71000000    42.79000000   -10.20000000
   H     91.92000000    42.67000000   -12.39000000
   H     95.21000000    44.98000000   -11.11000000
   H     91.88000000    43.97000000   -14.46000000
   H     95.37000000    46.20000000   -13.37000000
   H     92.77000000    45.51000000   -15.76000000
   N     91.21000000    45.18000000    -9.56000000
   C     89.90000000    45.78000000    -9.45000000
   C     89.58000000    46.18000000    -8.02000000
   O     90.50000000    46.33000000    -7.21000000
   C     89.71000000    46.88000000   -10.49000000
   C     90.15000000    46.57000000   -11.92000000
   C     89.94000000    47.76000000   -12.84000000
   O     89.12000000    47.80000000   -13.79000000
   O     90.70000000    48.73000000   -12.66000000
   H     92.00000000    45.81000000    -9.51000000
   H     89.14000000    45.03000000    -9.69000000
   H     90.24000000    47.78000000   -10.18000000
   H     88.68000000    47.23000000   -10.48000000
   H     89.65000000    45.70000000   -12.35000000
   H     91.22000000    46.38000000   -11.87000000
   N     88.29000000    46.24000000    -7.68000000
   C     87.75000000    46.43000000    -6.36000000
   C     88.13000000    45.26000000    -5.46000000
   O     88.00000000    44.13000000    -5.95000000
   C     86.25000000    46.62000000    -6.56000000
   C     85.48000000    46.64000000    -5.24000000
   C     84.24000000    45.75000000    -5.16000000
   O     83.13000000    46.12000000    -5.60000000
   O     84.23000000    44.66000000    -4.54000000
   H     87.63000000    46.14000000    -8.44000000
   H     88.15000000    47.35000000    -5.94000000
   H     85.90000000    45.78000000    -7.17000000
   H     85.95000000    47.58000000    -7.00000000
   H     85.14000000    47.64000000    -4.97000000
   H     86.07000000    46.31000000    -4.39000000
   N     88.58000000    45.53000000    -4.24000000
   C     88.95000000    44.53000000    -3.26000000
   H     89.82900000    44.86800000    -2.71100000
   H     88.12400000    44.37800000    -2.56500000
   H     89.17700000    43.59200000    -3.76600000
   H     88.99000000    46.45000000    -4.13000000
  Ca     81.71000000    44.18000000    -4.51500000
   O     82.67000000    42.79000000    -6.58500000
   H     83.53000000    42.35000000    -6.56500000
   H     82.38000000    42.70000000    -7.48500000
   O     80.04000000    45.66000000    -6.00500000
   H     79.50000000    45.40000000    -6.75500000
   H     79.93000000    46.60000000    -5.94500000
   O     80.20000000    41.84000000    -5.46500000
   H     80.97000000    41.31000000    -5.25500000
   H     79.63000000    41.76000000    -4.70500000

Ca 1.00



