%chk=loop2.holoCaM-CaMKII.run74.water2.chk
%nprocshared=20
%mem=10GB
%nosave
#b3lyp/svp scf=(tight,noincore,xqc) Test 
#IOP(5/87=12) Density=Current Pop=(MK,readradii) iop(6/33=2) iop(6/42=6)

loop2.holoCaM-CaMKII.run74.water2 

   -2  1 
   C     12.43000000    53.10000000   113.37600000
   C     12.50000000    54.59000000   113.06600000
   O     13.56000000    55.20000000   113.18600000
   H     11.43700000    52.72400000   113.12900000
   H     13.17600000    52.57000000   112.78400000
   H     12.62600000    52.93900000   114.43600000
   N     11.40000000    55.25000000   112.70600000
   C     11.55000000    56.65000000   112.35600000
   C     11.23000000    57.61000000   113.48600000
   O     10.30000000    57.29000000   114.22600000
   C     10.67000000    56.89000000   111.13600000
   C     10.72000000    58.32000000   110.62600000
   O     11.83000000    58.91000000   110.61600000
   O      9.69000000    58.95000000   110.29600000
   H     10.49000000    54.84000000   112.82600000
   H     12.59000000    56.95000000   112.20600000
   H      9.62000000    56.65000000   111.30600000
   H     11.09000000    56.28000000   110.33600000
   N     11.95000000    58.71000000   113.68600000
   C     11.61000000    59.80000000   114.57600000
   C     11.55000000    61.15000000   113.87600000
   O     11.34000000    62.16000000   114.54600000
   C     12.52000000    59.82000000   115.80600000
   H     12.78000000    58.82000000   113.11600000
   H     10.64000000    59.59000000   115.03600000
   H     13.25000000    60.59000000   115.56600000
   H     11.88000000    60.18000000   116.61600000
   H     12.99000000    58.88000000   116.06600000
   N     11.73000000    61.24000000   112.55600000
   C     11.96000000    62.53000000   111.94600000
   C     11.09000000    62.78000000   110.72600000
   O     10.90000000    63.94000000   110.35600000
   C     13.44000000    62.68000000   111.58600000
   C     13.97000000    61.59000000   110.66600000
   O     13.40000000    61.26000000   109.60600000
   O     15.00000000    60.98000000   110.99600000
   H     11.88000000    60.43000000   111.96600000
   H     11.73000000    63.33000000   112.64600000
   H     13.95000000    62.59000000   112.54600000
   H     13.58000000    63.68000000   111.18600000
   N     10.68000000    61.72000000   110.03600000
   C      9.84000000    61.81000000   108.85600000
   C     10.53000000    62.03000000   107.51600000
   O      9.82000000    62.30000000   106.55600000
   H     11.21000000    60.87000000   110.17600000
   H      9.10000000    62.59000000   109.04600000
   H      9.21000000    60.93000000   108.83600000
   N     11.86000000    61.97000000   107.41600000
   C     12.57000000    62.36000000   106.21600000
   C     12.51000000    61.31000000   105.11600000
   O     12.98000000    61.49000000   103.99600000
   C     14.02000000    62.64000000   106.61600000
   C     14.77000000    61.44000000   107.17600000
   N     15.92000000    61.75000000   107.78600000
   O     14.40000000    60.28000000   107.05600000
   H     12.40000000    61.76000000   108.24600000
   H     12.12000000    63.26000000   105.79600000
   H     14.03000000    63.46000000   107.33600000
   H     14.58000000    63.05000000   105.77600000
   H     16.31000000    62.67000000   107.66600000
   H     16.46000000    61.00000000   108.19600000
   N     11.98000000    60.12000000   105.41600000
   C     11.64000000    59.03000000   104.52600000
   C     12.81000000    58.09000000   104.29600000
   O     12.68000000    57.25000000   103.40600000
   H     11.80000000    59.91000000   106.38600000
   H     11.28000000    59.40000000   103.56600000
   H     10.78000000    58.51000000   104.95600000
   N     13.83000000    58.09000000   105.15600000
   C     15.07000000    57.35000000   104.96600000
   C     15.49000000    56.82000000   106.32600000
   O     15.18000000    57.51000000   107.29600000
   C     16.14000000    58.18000000   104.27600000
   C     15.84000000    58.44000000   102.80600000
   O     16.53000000    59.37000000   104.91600000
   H     13.89000000    58.80000000   105.86600000
   H     14.90000000    56.51000000   104.27600000
   H     17.01000000    57.52000000   104.27600000
   H     16.32000000    59.34000000   105.85600000
   H     16.77000000    58.53000000   102.24600000
   H     15.35000000    57.49000000   102.56600000
   H     15.06000000    59.19000000   102.62600000
   N     16.33000000    55.79000000   106.40600000
   C     17.13000000    55.42000000   107.55600000
   C     18.40000000    56.24000000   107.71600000
   O     19.18000000    56.43000000   106.79600000
   C     17.26000000    53.90000000   107.64600000
   C     16.00000000    53.14000000   108.03600000
   C     18.36000000    53.45000000   108.59600000
   C     15.87000000    51.74000000   107.42600000
   H     16.69000000    55.30000000   105.59600000
   H     16.57000000    55.66000000   108.45600000
   H     17.59000000    53.62000000   106.63600000
   H     15.16000000    53.69000000   107.61600000
   H     15.94000000    53.07000000   109.11600000
   H     18.09000000    53.96000000   109.52600000
   H     18.40000000    52.42000000   108.95600000
   H     19.32000000    53.81000000   108.21600000
   H     15.83000000    51.89000000   106.34600000
   H     16.76000000    51.16000000   107.68600000
   H     14.92000000    51.34000000   107.78600000
   N     18.49000000    56.82000000   108.91600000
   C     19.71000000    57.44000000   109.40600000
   C     20.50000000    56.46000000   110.24600000
   O     19.99000000    55.48000000   110.78600000
   C     19.31000000    58.75000000   110.09600000
   C     18.29000000    59.57000000   109.33600000
   O     17.05000000    59.39000000   109.24600000
   O     18.66000000    60.66000000   108.84600000
   H     17.75000000    56.74000000   109.60600000
   H     20.36000000    57.75000000   108.58600000
   H     20.11000000    59.42000000   110.41600000
   H     18.69000000    58.34000000   110.89600000
   N     21.76000000    56.82000000   110.50600000
   C     22.59000000    55.94000000   111.30600000
   C     22.17000000    55.73000000   112.74600000
   O     22.16000000    54.55000000   113.12600000
   C     24.07000000    56.27000000   111.11600000
   C     25.07000000    55.20000000   111.46600000
   C     25.88000000    55.50000000   112.56600000
   C     24.98000000    53.93000000   110.88600000
   C     26.86000000    54.56000000   112.92600000
   C     25.98000000    53.02000000   111.25600000
   C     26.87000000    53.31000000   112.29600000
   H     22.27000000    57.57000000   110.04600000
   H     22.49000000    54.93000000   110.90600000
   H     24.33000000    57.20000000   111.62600000
   H     24.04000000    56.46000000   110.03600000
   H     25.90000000    56.48000000   113.01600000
   H     24.19000000    53.77000000   110.16600000
   H     27.57000000    54.84000000   113.68600000
   H     26.06000000    52.04000000   110.78600000
   H     27.62000000    52.57000000   112.52600000
   N     21.56000000    56.68000000   113.44600000
   C     20.80000000    56.40000000   114.64600000
   C     19.63000000    55.43000000   114.50600000
   O     19.10000000    55.06000000   115.55600000
   C     20.33000000    57.77000000   115.13600000
   C     21.57000000    58.57000000   114.75600000
   C     21.84000000    58.10000000   113.33600000
   H     21.39000000    55.95000000   115.43600000
   H     19.50000000    58.16000000   114.55600000
   H     20.16000000    57.73000000   116.21600000
   H     21.25000000    59.61000000   114.80600000
   H     22.37000000    58.37000000   115.47600000
   H     21.18000000    58.61000000   112.62600000
   H     22.88000000    58.24000000   113.03600000
   N     19.10000000    55.13000000   113.31600000
   C     17.90000000    54.34000000   113.11600000
   C     18.26000000    52.97000000   112.57600000
   O     17.66000000    51.97000000   112.97600000
   C     16.90000000    55.13000000   112.27600000
   C     16.46000000    56.49000000   112.81600000
   C     15.59000000    57.18000000   111.77600000
   O     14.74000000    58.07000000   111.99600000
   O     15.81000000    56.95000000   110.57600000
   H     19.72000000    55.25000000   112.53600000
   H     17.37000000    54.15000000   114.05600000
   H     16.04000000    54.50000000   112.03600000
   H     17.40000000    55.35000000   111.33600000
   H     17.37000000    57.06000000   113.00600000
   H     15.88000000    56.40000000   113.73600000
   N     19.41000000    52.80000000   111.91600000
   C     20.07000000    51.54000000   111.67600000
   H     21.03800000    51.53600000   112.17800000
   H     19.45600000    50.72800000   112.06500000
   H     20.21700000    51.40400000   110.60400000
   H     19.82000000    53.59000000   111.43600000
  Ca     14.41000000    58.84000000   109.45600000
   O     13.60000000    56.01000000   109.65600000
   H     14.31000000    55.65000000   110.18600000
   H     12.93000000    55.32000000   109.64600000
   O     11.88000000    58.60000000   107.92600000
   H     11.34000000    57.82000000   107.78600000
   H     11.39000000    59.11000000   108.57600000

Ca 1.00



