%chk=loop2.holoCaM-CaMKII.run30.water2.chk
%nprocshared=20
%mem=10GB
%nosave
#b3lyp/svp scf=(tight,noincore,xqc) Test 
#IOP(5/87=12) Density=Current Pop=(MK,readradii) iop(6/33=2) iop(6/42=6)

loop2.holoCaM-CaMKII.run30.water2 

   -2  1 
   C     76.84000000    48.37000000    17.54000000
   C     77.34000000    48.38000000    16.10000000
   O     78.44000000    48.85000000    15.85000000
   H     75.81300000    48.00500000    17.56500000
   H     77.47200000    47.71600000    18.14000000
   H     76.87500000    49.38200000    17.94400000
   N     76.58000000    47.84000000    15.14000000
   C     76.96000000    47.75000000    13.74000000
   C     76.87000000    49.13000000    13.11000000
   O     75.84000000    49.80000000    13.20000000
   C     76.07000000    46.79000000    12.96000000
   C     76.63000000    46.68000000    11.55000000
   O     75.82000000    46.28000000    10.68000000
   O     77.85000000    46.83000000    11.32000000
   H     75.68000000    47.57000000    15.50000000
   H     77.99000000    47.40000000    13.82000000
   H     75.03000000    47.10000000    13.00000000
   H     76.14000000    45.83000000    13.47000000
   N     77.82000000    49.62000000    12.31000000
   C     77.73000000    50.77000000    11.44000000
   C     78.35000000    50.43000000    10.09000000
   O     78.76000000    51.33000000     9.36000000
   C     78.42000000    51.86000000    12.25000000
   H     78.68000000    49.08000000    12.34000000
   H     76.67000000    50.98000000    11.34000000
   H     77.71000000    52.11000000    13.04000000
   H     79.40000000    51.56000000    12.61000000
   H     78.65000000    52.76000000    11.68000000
   N     78.25000000    49.17000000     9.66000000
   C     78.66000000    48.81000000     8.32000000
   C     78.03000000    47.58000000     7.68000000
   O     78.11000000    47.41000000     6.46000000
   C     80.16000000    48.57000000     8.36000000
   C     80.83000000    47.48000000     9.19000000
   O     80.17000000    46.50000000     9.60000000
   O     82.02000000    47.70000000     9.49000000
   H     77.88000000    48.44000000    10.26000000
   H     78.51000000    49.68000000     7.67000000
   H     80.60000000    49.53000000     8.64000000
   H     80.41000000    48.54000000     7.30000000
   N     77.34000000    46.71000000     8.41000000
   C     76.75000000    45.54000000     7.80000000
   C     77.72000000    44.50000000     7.26000000
   O     77.37000000    43.78000000     6.33000000
   H     77.25000000    46.86000000     9.41000000
   H     76.17000000    45.83000000     6.92000000
   H     76.06000000    45.06000000     8.49000000
   N     78.91000000    44.32000000     7.84000000
   C     79.81000000    43.23000000     7.52000000
   C     79.41000000    41.81000000     7.90000000
   O     79.49000000    40.93000000     7.04000000
   C     81.28000000    43.57000000     7.74000000
   C     81.73000000    43.55000000     9.19000000
   N     83.03000000    43.38000000     9.41000000
   O     80.86000000    43.51000000    10.07000000
   H     79.18000000    44.99000000     8.54000000
   H     79.82000000    43.19000000     6.43000000
   H     81.35000000    44.62000000     7.46000000
   H     82.00000000    42.96000000     7.21000000
   H     83.72000000    43.23000000     8.69000000
   H     83.41000000    43.47000000    10.34000000
   N     78.77000000    41.64000000     9.06000000
   C     78.39000000    40.38000000     9.67000000
   C     79.07000000    40.04000000    10.99000000
   O     78.71000000    39.02000000    11.59000000
   H     78.62000000    42.47000000     9.61000000
   H     78.45000000    39.51000000     9.01000000
   H     77.35000000    40.52000000     9.97000000
   N     80.07000000    40.81000000    11.43000000
   C     80.79000000    40.65000000    12.68000000
   C     80.76000000    41.99000000    13.40000000
   O     80.72000000    43.07000000    12.81000000
   C     82.20000000    40.15000000    12.42000000
   C     82.20000000    38.67000000    12.03000000
   O     82.93000000    40.88000000    11.45000000
   H     80.27000000    41.65000000    10.91000000
   H     80.22000000    39.91000000    13.24000000
   H     82.76000000    40.16000000    13.36000000
   H     83.44000000    41.57000000    11.89000000
   H     81.30000000    38.18000000    12.41000000
   H     82.08000000    38.58000000    10.95000000
   H     83.14000000    38.18000000    12.27000000
   N     80.90000000    41.95000000    14.73000000
   C     81.60000000    42.97000000    15.49000000
   C     82.99000000    43.17000000    14.89000000
   O     83.65000000    42.24000000    14.42000000
   C     81.72000000    42.57000000    16.95000000
   C     80.37000000    42.51000000    17.66000000
   C     82.65000000    43.46000000    17.77000000
   C     80.34000000    41.84000000    19.04000000
   H     80.86000000    41.01000000    15.10000000
   H     80.94000000    43.82000000    15.32000000
   H     82.02000000    41.52000000    16.91000000
   H     79.60000000    42.10000000    17.01000000
   H     80.00000000    43.53000000    17.77000000
   H     82.38000000    44.52000000    17.73000000
   H     82.58000000    43.09000000    18.79000000
   H     83.66000000    43.41000000    17.37000000
   H     80.96000000    42.28000000    19.81000000
   H     79.29000000    41.80000000    19.35000000
   H     80.69000000    40.81000000    18.95000000
   N     83.42000000    44.43000000    14.96000000
   C     84.74000000    44.90000000    14.59000000
   C     85.18000000    45.81000000    15.73000000
   O     84.38000000    46.36000000    16.48000000
   C     84.55000000    45.88000000    13.44000000
   C     83.81000000    45.22000000    12.29000000
   O     82.56000000    45.23000000    12.24000000
   O     84.45000000    44.50000000    11.49000000
   H     82.77000000    45.15000000    15.24000000
   H     85.49000000    44.15000000    14.33000000
   H     85.56000000    46.12000000    13.10000000
   H     83.97000000    46.73000000    13.80000000
   N     86.48000000    46.03000000    15.95000000
   C     87.00000000    46.73000000    17.11000000
   C     86.52000000    48.17000000    17.24000000
   O     86.31000000    48.59000000    18.37000000
   C     88.52000000    46.63000000    17.22000000
   C     89.19000000    47.26000000    18.42000000
   C     90.27000000    48.13000000    18.21000000
   C     88.76000000    46.91000000    19.70000000
   C     90.93000000    48.63000000    19.34000000
   C     89.44000000    47.44000000    20.81000000
   C     90.55000000    48.28000000    20.64000000
   H     87.15000000    45.47000000    15.46000000
   H     86.56000000    46.22000000    17.97000000
   H     88.95000000    47.07000000    16.32000000
   H     88.79000000    45.57000000    17.19000000
   H     90.59000000    48.45000000    17.23000000
   H     87.93000000    46.24000000    19.86000000
   H     91.72000000    49.33000000    19.15000000
   H     89.18000000    47.09000000    21.80000000
   H     91.06000000    48.67000000    21.51000000
   N     86.41000000    49.01000000    16.20000000
   C     85.85000000    50.35000000    16.29000000
   C     84.37000000    50.40000000    16.67000000
   O     83.95000000    51.40000000    17.24000000
   C     86.17000000    51.09000000    15.00000000
   C     87.28000000    50.28000000    14.34000000
   C     86.92000000    48.88000000    14.85000000
   H     86.26000000    50.87000000    17.16000000
   H     85.30000000    50.98000000    14.36000000
   H     86.34000000    52.17000000    15.08000000
   H     87.24000000    50.26000000    13.25000000
   H     88.29000000    50.49000000    14.70000000
   H     86.19000000    48.29000000    14.31000000
   H     87.83000000    48.29000000    14.82000000
   N     83.59000000    49.34000000    16.44000000
   C     82.29000000    49.18000000    17.04000000
   C     82.12000000    48.68000000    18.47000000
   O     81.28000000    49.13000000    19.25000000
   C     81.48000000    48.16000000    16.23000000
   C     81.27000000    48.63000000    14.80000000
   C     80.63000000    47.55000000    13.94000000
   O     80.27000000    47.92000000    12.80000000
   O     80.43000000    46.34000000    14.19000000
   H     83.99000000    48.51000000    16.02000000
   H     81.70000000    50.09000000    16.98000000
   H     80.54000000    47.86000000    16.69000000
   H     82.06000000    47.24000000    16.26000000
   H     82.20000000    48.89000000    14.29000000
   H     80.63000000    49.51000000    14.76000000
   N     83.14000000    47.93000000    18.90000000
   C     83.40000000    47.56000000    20.28000000
   H     84.17900000    48.20400000    20.68800000
   H     82.48800000    47.67700000    20.86600000
   H     83.72900000    46.52200000    20.32300000
   H     83.73000000    47.52000000    18.19000000
  Ca     80.08000000    45.44000000    11.83000000
   O     78.52000000    44.61000000    14.06000000
   H     79.05000000    45.30000000    14.47000000
   H     78.00000000    44.25000000    14.78000000
   O     77.85000000    43.41000000    11.38000000
   H     76.99000000    43.04000000    11.17000000
   H     77.78000000    43.68000000    12.30000000

Ca 1.00



