%chk=loop2.apoCaM-CA-Ng.Init295.run62.water4.chk
%nprocshared=20
%mem=10GB
%nosave
#b3lyp/svp scf=(tight,noincore,xqc) Test 
#IOP(5/87=12) Density=Current Pop=(MK,readradii) iop(6/33=2) iop(6/42=6)

loop2.apoCaM-CA-Ng.Init295.run62.water4 

   -2  1 
   C     75.05000000    90.43000000    49.86000000
   C     75.16000000    90.16000000    51.35000000
   O     74.18000000    90.21000000    52.10000000
   H     74.58200000    91.40100000    49.70100000
   H     76.04500000    90.43000000    49.41600000
   H     74.44300000    89.65400000    49.39300000
   N     76.34000000    89.71000000    51.78000000
   C     76.66000000    89.22000000    53.10000000
   C     75.94000000    87.98000000    53.62000000
   O     76.48000000    87.26000000    54.45000000
   C     78.18000000    89.14000000    53.20000000
   C     78.68000000    89.19000000    54.64000000
   O     79.84000000    88.89000000    54.99000000
   O     77.97000000    89.57000000    55.59000000
   H     77.03000000    89.62000000    51.04000000
   H     76.28000000    89.95000000    53.81000000
   H     78.60000000    89.90000000    52.54000000
   H     78.59000000    88.27000000    52.69000000
   N     74.69000000    87.70000000    53.24000000
   C     73.77000000    86.66000000    53.68000000
   C     72.94000000    86.11000000    52.52000000
   O     72.91000000    86.68000000    51.43000000
   C     72.94000000    87.24000000    54.82000000
   H     74.31000000    88.32000000    52.55000000
   H     74.42000000    85.85000000    54.00000000
   H     72.54000000    86.40000000    55.39000000
   H     73.39000000    88.04000000    55.40000000
   H     72.15000000    87.87000000    54.40000000
   N     72.36000000    84.92000000    52.64000000
   C     72.33000000    83.99000000    53.76000000
   C     73.36000000    82.87000000    53.71000000
   O     73.64000000    82.34000000    52.64000000
   C     70.90000000    83.49000000    53.88000000
   C     69.87000000    84.49000000    54.38000000
   O     70.18000000    84.99000000    55.49000000
   O     68.71000000    84.55000000    53.93000000
   H     71.94000000    84.53000000    51.81000000
   H     72.47000000    84.47000000    54.73000000
   H     70.99000000    82.62000000    54.54000000
   H     70.63000000    83.16000000    52.88000000
   N     73.80000000    82.44000000    54.90000000
   C     74.66000000    81.28000000    54.98000000
   C     76.08000000    81.65000000    54.56000000
   O     76.63000000    82.67000000    54.96000000
   H     73.39000000    82.74000000    55.77000000
   H     74.21000000    80.49000000    54.37000000
   H     74.68000000    80.91000000    56.01000000
   N     76.75000000    80.90000000    53.69000000
   C     76.49000000    79.52000000    53.31000000
   C     75.81000000    79.36000000    51.96000000
   O     75.82000000    78.26000000    51.40000000
   C     77.86000000    78.85000000    53.39000000
   C     77.80000000    77.33000000    53.29000000
   N     77.25000000    76.71000000    54.33000000
   O     78.20000000    76.67000000    52.34000000
   H     77.58000000    81.34000000    53.30000000
   H     75.83000000    79.13000000    54.08000000
   H     78.41000000    79.04000000    54.31000000
   H     78.41000000    79.13000000    52.49000000
   H     77.02000000    77.26000000    55.16000000
   H     77.40000000    75.72000000    54.31000000
   N     75.03000000    80.35000000    51.54000000
   C     74.09000000    80.23000000    50.43000000
   C     72.80000000    79.53000000    50.82000000
   O     72.31000000    78.70000000    50.06000000
   H     75.08000000    81.21000000    52.06000000
   H     74.54000000    79.73000000    49.57000000
   H     73.85000000    81.24000000    50.12000000
   N     72.27000000    79.82000000    52.01000000
   C     71.03000000    79.24000000    52.48000000
   C     69.88000000    80.17000000    52.15000000
   O     69.13000000    80.64000000    53.00000000
   C     71.13000000    78.90000000    53.96000000
   C     70.04000000    78.01000000    54.55000000
   O     72.36000000    78.25000000    54.19000000
   H     72.73000000    80.48000000    52.62000000
   H     70.79000000    78.32000000    51.93000000
   H     71.08000000    79.86000000    54.49000000
   H     72.79000000    78.56000000    54.99000000
   H     70.33000000    76.99000000    54.34000000
   H     70.02000000    78.21000000    55.62000000
   H     69.00000000    78.11000000    54.23000000
   N     69.77000000    80.57000000    50.87000000
   C     69.07000000    81.71000000    50.33000000
   C     67.70000000    81.32000000    49.77000000
   O     67.48000000    80.18000000    49.37000000
   C     69.87000000    82.48000000    49.29000000
   C     70.89000000    83.38000000    49.99000000
   C     70.48000000    81.53000000    48.27000000
   C     71.61000000    84.37000000    49.09000000
   H     70.26000000    79.94000000    50.25000000
   H     68.85000000    82.40000000    51.14000000
   H     69.22000000    83.19000000    48.78000000
   H     71.63000000    82.68000000    50.37000000
   H     70.55000000    83.91000000    50.89000000
   H     70.70000000    81.97000000    47.30000000
   H     71.44000000    81.23000000    48.69000000
   H     69.89000000    80.62000000    48.12000000
   H     72.22000000    83.79000000    48.40000000
   H     70.94000000    85.00000000    48.50000000
   H     72.25000000    85.03000000    49.68000000
   N     66.68000000    82.18000000    49.76000000
   C     65.39000000    81.90000000    49.17000000
   C     65.51000000    82.21000000    47.68000000
   O     66.38000000    82.96000000    47.23000000
   C     64.30000000    82.65000000    49.94000000
   C     64.48000000    82.36000000    51.42000000
   O     64.95000000    81.28000000    51.82000000
   O     64.23000000    83.28000000    52.23000000
   H     66.88000000    83.10000000    50.12000000
   H     65.13000000    80.85000000    49.12000000
   H     63.31000000    82.36000000    49.59000000
   H     64.28000000    83.71000000    49.67000000
   N     64.54000000    81.74000000    46.90000000
   C     64.40000000    81.84000000    45.46000000
   C     64.78000000    83.21000000    44.91000000
   O     65.80000000    83.33000000    44.24000000
   C     65.12000000    80.61000000    44.90000000
   C     64.62000000    80.16000000    43.55000000
   C     65.16000000    80.73000000    42.39000000
   C     63.59000000    79.21000000    43.44000000
   C     64.50000000    80.56000000    41.17000000
   C     62.92000000    79.08000000    42.22000000
   C     63.29000000    79.87000000    41.12000000
   H     63.80000000    81.24000000    47.36000000
   H     63.37000000    81.77000000    45.11000000
   H     64.89000000    79.76000000    45.54000000
   H     66.21000000    80.70000000    44.90000000
   H     65.90000000    81.51000000    42.51000000
   H     63.35000000    78.66000000    44.34000000
   H     64.79000000    81.06000000    40.25000000
   H     62.12000000    78.37000000    42.09000000
   H     62.73000000    79.87000000    40.19000000
   N     64.05000000    84.27000000    45.25000000
   C     64.39000000    85.60000000    44.78000000
   C     65.59000000    86.25000000    45.46000000
   O     66.09000000    87.19000000    44.84000000
   C     63.08000000    86.35000000    44.99000000
   C     62.40000000    85.72000000    46.20000000
   C     62.98000000    84.30000000    46.23000000
   H     64.71000000    85.47000000    43.75000000
   H     63.16000000    87.43000000    45.08000000
   H     62.48000000    86.19000000    44.09000000
   H     62.64000000    86.23000000    47.13000000
   H     61.32000000    85.73000000    46.09000000
   H     63.38000000    84.04000000    47.21000000
   H     62.15000000    83.76000000    45.78000000
   N     66.08000000    85.81000000    46.61000000
   C     67.35000000    86.23000000    47.17000000
   C     68.48000000    85.81000000    46.24000000
   O     69.29000000    86.70000000    45.97000000
   C     67.55000000    85.71000000    48.59000000
   C     66.40000000    86.14000000    49.49000000
   C     66.61000000    85.73000000    50.94000000
   O     66.83000000    84.52000000    51.15000000
   O     66.49000000    86.61000000    51.83000000
   H     65.70000000    85.00000000    47.08000000
   H     67.35000000    87.31000000    47.09000000
   H     68.45000000    86.07000000    49.07000000
   H     67.50000000    84.63000000    48.47000000
   H     65.42000000    85.81000000    49.14000000
   H     66.47000000    87.23000000    49.49000000
   N     68.57000000    84.62000000    45.63000000
   C     69.54000000    84.09000000    44.69000000
   H     70.47500000    83.88300000    45.21100000
   H     69.15700000    83.16800000    44.25300000
   H     69.71900000    84.82000000    43.90100000
   H     67.86000000    83.94000000    45.87000000
  Ca     66.12000000    84.55000000    53.78000000
   O     66.81000000    82.00000000    53.52000000
   H     67.64000000    81.55000000    53.65000000
   H     66.36000000    81.49000000    52.85000000
   O     66.11000000    86.85000000    55.04000000
   H     65.62000000    87.64000000    54.79000000
   H     66.60000000    87.11000000    55.83000000
   O     66.97000000    83.73000000    56.20000000
   H     66.51000000    83.76000000    57.04000000
   H     67.89000000    83.81000000    56.44000000
   O     63.72000000    86.09000000    53.68000000
   H     63.62000000    86.92000000    54.16000000
   H     62.96000000    86.06000000    53.09000000

Ca 1.00



