%chk=loop1.apoCaM-CA-Ng.Init293.run36.water5.chk
%nprocshared=20
%mem=10GB
%nosave
#b3lyp/svp scf=(tight,noincore,xqc) Test 
#IOP(5/87=12) Density=Current Pop=(MK,readradii) iop(6/33=2) iop(6/42=6)

loop1.apoCaM-CA-Ng.Init293.run36.water5 

   0  1 
   C     41.73000000    82.63000000   120.03000000
   C     41.93000000    82.08000000   121.44000000
   O     42.86000000    81.31000000   121.67000000
   H     41.02800000    83.46300000   120.06200000
   H     42.68500000    82.97600000   119.63500000
   H     41.33300000    81.84500000   119.38600000
   N     41.16000000    82.59000000   122.40000000
   C     41.29000000    82.19000000   123.79000000
   C     39.98000000    81.91000000   124.51000000
   O     40.00000000    81.93000000   125.74000000
   C     42.01000000    83.29000000   124.57000000
   C     41.39000000    84.67000000   124.52000000
   O     40.99000000    85.08000000   123.40000000
   O     41.40000000    85.43000000   125.51000000
   H     40.57000000    83.39000000   122.25000000
   H     41.93000000    81.31000000   123.86000000
   H     43.03000000    83.41000000   124.20000000
   H     42.18000000    82.98000000   125.60000000
   N     38.88000000    81.84000000   123.76000000
   C     37.52000000    81.89000000   124.26000000
   C     36.71000000    80.76000000   123.65000000
   O     36.36000000    80.78000000   122.47000000
   C     36.92000000    83.23000000   123.87000000
   C     37.72000000    84.41000000   124.41000000
   C     37.00000000    85.68000000   123.97000000
   C     37.87000000    86.88000000   124.36000000
   N     39.19000000    86.99000000   123.71000000
   H     39.02000000    81.74000000   122.76000000
   H     37.44000000    81.82000000   125.35000000
   H     35.99000000    83.29000000   124.44000000
   H     36.85000000    83.29000000   122.78000000
   H     38.72000000    84.39000000   123.97000000
   H     37.77000000    84.37000000   125.50000000
   H     36.13000000    85.72000000   124.61000000
   H     36.77000000    85.79000000   122.91000000
   H     38.05000000    86.82000000   125.43000000
   H     37.22000000    87.72000000   124.13000000
   H     39.57000000    86.09000000   123.48000000
   H     39.12000000    87.56000000   122.88000000
   H     39.71000000    87.50000000   124.41000000
   N     36.30000000    79.69000000   124.33000000
   C     36.50000000    79.32000000   125.72000000
   C     35.83000000    80.10000000   126.83000000
   O     35.69000000    81.31000000   126.67000000
   C     37.93000000    79.02000000   126.15000000
   C     38.57000000    78.11000000   125.11000000
   O     39.34000000    78.57000000   124.24000000
   O     38.20000000    76.91000000   125.11000000
   H     35.71000000    79.07000000   123.80000000
   H     35.92000000    78.39000000   125.74000000
   H     37.99000000    78.51000000   127.11000000
   H     38.47000000    79.96000000   126.23000000
   N     35.52000000    79.54000000   128.01000000
   C     35.52000000    78.16000000   128.44000000
   C     36.57000000    77.98000000   129.53000000
   O     36.62000000    78.78000000   130.45000000
   H     35.17000000    80.19000000   128.70000000
   H     35.72000000    77.44000000   127.64000000
   H     34.57000000    78.04000000   128.95000000
   N     37.24000000    76.83000000   129.64000000
   C     37.68000000    75.90000000   128.61000000
   C     39.12000000    75.44000000   128.77000000
   O     39.54000000    74.99000000   129.84000000
   C     36.70000000    74.74000000   128.67000000
   C     36.74000000    73.82000000   127.45000000
   O     37.42000000    74.15000000   126.46000000
   O     36.11000000    72.75000000   127.41000000
   H     37.93000000    76.77000000   130.37000000
   H     37.56000000    76.32000000   127.61000000
   H     35.63000000    74.97000000   128.70000000
   H     36.86000000    74.04000000   129.49000000
   N     39.91000000    75.64000000   127.72000000
   C     41.33000000    75.34000000   127.76000000
   C     42.21000000    75.72000000   126.58000000
   O     42.16000000    76.80000000   126.00000000
   H     39.53000000    76.16000000   126.94000000
   H     41.40000000    74.26000000   127.91000000
   H     41.80000000    75.83000000   128.62000000
   N     43.23000000    74.94000000   126.22000000
   C     44.08000000    75.18000000   125.07000000
   C     43.38000000    74.75000000   123.79000000
   O     42.75000000    73.70000000   123.78000000
   C     45.45000000    74.51000000   125.14000000
   C     45.59000000    73.03000000   125.47000000
   O     46.13000000    75.18000000   126.18000000
   H     43.43000000    74.08000000   126.72000000
   H     44.30000000    76.24000000   124.98000000
   H     45.95000000    74.67000000   124.18000000
   H     46.96000000    74.72000000   126.32000000
   H     44.77000000    72.65000000   126.09000000
   H     45.50000000    72.45000000   124.55000000
   H     46.50000000    72.71000000   125.99000000
   N     43.53000000    75.51000000   122.70000000
   C     42.83000000    75.32000000   121.45000000
   C     43.70000000    74.49000000   120.52000000
   O     44.61000000    75.02000000   119.88000000
   C     42.46000000    76.65000000   120.79000000
   C     41.85000000    76.56000000   119.39000000
   C     43.58000000    77.68000000   120.78000000
   C     40.68000000    75.59000000   119.36000000
   H     44.19000000    76.27000000   122.75000000
   H     41.86000000    74.84000000   121.57000000
   H     41.63000000    77.06000000   121.37000000
   H     42.54000000    76.17000000   118.64000000
   H     41.56000000    77.58000000   119.15000000
   H     44.47000000    77.29000000   120.28000000
   H     43.21000000    78.60000000   120.32000000
   H     43.85000000    77.83000000   121.82000000
   H     41.03000000    74.59000000   119.62000000
   H     39.92000000    75.81000000   120.12000000
   H     40.21000000    75.55000000   118.38000000
   N     43.47000000    73.18000000   120.51000000
   C     44.11000000    72.21000000   119.65000000
   C     43.14000000    71.62000000   118.64000000
   O     43.57000000    70.93000000   117.72000000
   C     44.73000000    71.06000000   120.44000000
   C     43.65000000    70.41000000   121.31000000
   O     45.72000000    71.44000000   121.37000000
   H     42.76000000    72.76000000   121.09000000
   H     44.98000000    72.59000000   119.11000000
   H     45.16000000    70.31000000   119.78000000
   H     46.09000000    72.24000000   120.98000000
   H     42.81000000    70.06000000   120.72000000
   H     44.10000000    69.50000000   121.72000000
   H     43.35000000    71.14000000   122.05000000
   N     41.85000000    71.98000000   118.66000000
   C     40.78000000    71.60000000   117.77000000
   C     40.23000000    70.18000000   117.87000000
   O     40.85000000    69.29000000   118.46000000
   C     41.08000000    71.97000000   116.32000000
   C     41.73000000    73.35000000   116.29000000
   O     39.99000000    72.03000000   115.42000000
   H     41.55000000    72.45000000   119.51000000
   H     39.87000000    72.09000000   118.12000000
   H     41.75000000    71.22000000   115.91000000
   H     40.29000000    72.49000000   114.63000000
   H     41.17000000    74.03000000   116.94000000
   H     42.79000000    73.40000000   116.56000000
   H     41.71000000    73.76000000   115.28000000
   N     39.17000000    69.81000000   117.16000000
   C     38.54000000    68.50000000   117.14000000
   C     37.34000000    68.15000000   118.02000000
   O     37.03000000    66.98000000   118.16000000
   C     38.39000000    68.27000000   115.64000000
   C     39.65000000    68.24000000   114.77000000
   C     40.39000000    66.95000000   115.08000000
   C     41.39000000    66.50000000   114.01000000
   N     42.28000000    67.62000000   113.65000000
   H     38.80000000    70.59000000   116.64000000
   H     39.24000000    67.71000000   117.40000000
   H     37.91000000    69.12000000   115.16000000
   H     37.84000000    67.34000000   115.55000000
   H     40.27000000    69.08000000   115.10000000
   H     39.31000000    68.44000000   113.76000000
   H     39.76000000    66.11000000   115.37000000
   H     40.97000000    67.14000000   115.99000000
   H     40.93000000    66.15000000   113.09000000
   H     41.94000000    65.70000000   114.50000000
   H     43.13000000    67.26000000   113.25000000
   H     41.84000000    68.14000000   112.91000000
   H     42.65000000    68.11000000   114.46000000
   N     36.57000000    69.07000000   118.61000000
   C     36.46000000    70.51000000   118.50000000
   C     36.47000000    70.98000000   117.06000000
   O     37.11000000    71.97000000   116.70000000
   C     37.32000000    71.14000000   119.59000000
   C     37.18000000    72.66000000   119.67000000
   C     37.31000000    73.18000000   121.10000000
   O     38.38000000    73.07000000   121.74000000
   O     36.35000000    73.79000000   121.61000000
   H     35.90000000    68.63000000   119.23000000
   H     35.43000000    70.69000000   118.80000000
   H     38.37000000    70.88000000   119.46000000
   H     37.02000000    70.69000000   120.53000000
   H     36.15000000    72.85000000   119.40000000
   H     37.93000000    73.07000000   118.99000000
   N     35.72000000    70.32000000   116.17000000
   C     35.52000000    70.79000000   114.82000000
   H     34.80500000    71.61300000   114.82500000
   H     36.46900000    71.13600000   114.41100000
   H     35.13400000    69.97700000   114.20500000
   H     35.33000000    69.44000000   116.47000000
  Ca     37.66000000    74.43000000   123.92600000
   O     40.34000000    75.08000000   123.51600000
   H     40.75000000    75.93000000   123.41600000
   H     40.96000000    74.46000000   123.12600000
   O     35.70000000    72.65000000   124.72600000
   H     35.77000000    72.64000000   125.68600000
   H     35.07000000    71.95000000   124.53600000
   O     35.24000000    75.81000000   124.62600000
   H     34.81000000    76.58000000   124.24600000
   H     34.75000000    75.64000000   125.43600000
   O     38.83000000    71.98000000   124.41600000
   H     39.63000000    71.71000000   124.86600000
   H     38.22000000    71.25000000   124.54600000
   O     37.94000000    76.55000000   122.32600000
   H     37.38000000    77.10000000   121.76600000
   H     38.41000000    77.17000000   122.87600000

Ca 1.00



