%chk=loop1.holoCaM-CaMKII.run46.water2.chk
%nprocshared=20
%mem=10GB
%nosave
#b3lyp/svp scf=(tight,noincore,xqc) Test 
#IOP(5/87=12) Density=Current Pop=(MK,readradii) iop(6/33=2) iop(6/42=6)

loop1.holoCaM-CaMKII.run46.water2 

   0  1 
   C      3.92000000    33.98000000    17.25000000
   C      3.68000000    32.48000000    17.08000000
   O      3.52000000    31.79000000    18.09000000
   H      4.83600000    34.26200000    16.73100000
   H      3.08000000    34.53300000    16.82900000
   H      4.01600000    34.21500000    18.31000000
   N      3.62000000    32.01000000    15.84000000
   C      3.35000000    30.61000000    15.55000000
   C      4.54000000    29.70000000    15.83000000
   O      5.32000000    29.45000000    14.92000000
   C      2.84000000    30.50000000    14.11000000
   C      2.60000000    29.10000000    13.58000000
   O      2.54000000    28.93000000    12.34000000
   O      2.47000000    28.15000000    14.39000000
   H      3.93000000    32.62000000    15.10000000
   H      2.53000000    30.23000000    16.15000000
   H      3.57000000    30.92000000    13.42000000
   H      1.89000000    31.03000000    14.07000000
   N      4.75000000    29.21000000    17.06000000
   C      6.01000000    28.65000000    17.50000000
   C      6.28000000    27.33000000    16.80000000
   O      7.38000000    26.79000000    16.82000000
   C      6.22000000    28.62000000    19.01000000
   C      6.36000000    29.98000000    19.69000000
   C      6.21000000    29.86000000    21.20000000
   C      6.20000000    31.23000000    21.87000000
   N      5.48000000    31.08000000    23.14000000
   H      4.15000000    29.46000000    17.83000000
   H      6.80000000    29.33000000    17.16000000
   H      7.16000000    28.08000000    19.12000000
   H      5.37000000    28.14000000    19.50000000
   H      5.51000000    30.57000000    19.36000000
   H      7.32000000    30.45000000    19.45000000
   H      7.01000000    29.25000000    21.62000000
   H      5.36000000    29.23000000    21.47000000
   H      5.88000000    32.00000000    21.16000000
   H      7.27000000    31.38000000    22.04000000
   H      5.50000000    31.96000000    23.64000000
   H      4.52000000    30.90000000    22.91000000
   H      5.89000000    30.40000000    23.77000000
   N      5.31000000    26.58000000    16.27000000
   C      5.45000000    25.23000000    15.77000000
   C      5.26000000    25.27000000    14.26000000
   O      5.20000000    24.20000000    13.65000000
   C      4.48000000    24.26000000    16.44000000
   C      3.05000000    24.76000000    16.63000000
   O      2.48000000    25.30000000    15.65000000
   O      2.52000000    24.77000000    17.76000000
   H      4.39000000    27.00000000    16.22000000
   H      6.41000000    24.81000000    16.07000000
   H      4.76000000    23.94000000    17.44000000
   H      4.41000000    23.36000000    15.84000000
   N      5.06000000    26.42000000    13.62000000
   C      5.15000000    26.55000000    12.18000000
   C      4.13000000    25.78000000    11.34000000
   O      4.59000000    25.38000000    10.27000000
   H      4.75000000    27.25000000    14.11000000
   H      6.20000000    26.43000000    11.90000000
   H      4.83000000    27.58000000    12.07000000
   N      2.86000000    25.71000000    11.73000000
   C      1.85000000    25.06000000    10.92000000
   C      1.23000000    26.13000000    10.03000000
   O      0.40000000    25.77000000     9.20000000
   C      0.84000000    24.30000000    11.78000000
   C      0.22000000    25.12000000    12.90000000
   O      0.10000000    26.36000000    12.78000000
   O     -0.14000000    24.61000000    13.98000000
   H      2.66000000    26.23000000    12.57000000
   H      2.28000000    24.26000000    10.32000000
   H      1.36000000    23.43000000    12.18000000
   H      0.01000000    23.86000000    11.23000000
   N      1.56000000    27.42000000    10.11000000
   C      1.05000000    28.48000000     9.27000000
   C     -0.17000000    29.17000000     9.86000000
   O     -0.79000000    29.95000000     9.14000000
   H      2.28000000    27.59000000    10.80000000
   H      0.79000000    28.06000000     8.30000000
   H      1.76000000    29.31000000     9.18000000
   N     -0.45000000    28.80000000    11.11000000
   C     -1.55000000    29.33000000    11.88000000
   C     -1.16000000    29.81000000    13.27000000
   O     -0.35000000    29.20000000    13.96000000
   C     -2.75000000    28.40000000    12.07000000
   C     -3.64000000    28.55000000    10.85000000
   O     -2.42000000    27.03000000    12.10000000
   H      0.17000000    28.09000000    11.49000000
   H     -2.05000000    30.13000000    11.34000000
   H     -3.33000000    28.67000000    12.96000000
   H     -1.51000000    26.87000000    12.37000000
   H     -4.10000000    29.54000000    10.89000000
   H     -3.12000000    28.42000000     9.90000000
   H     -4.41000000    27.78000000    10.93000000
   N     -1.84000000    30.86000000    13.73000000
   C     -1.83000000    31.38000000    15.08000000
   C     -3.13000000    31.11000000    15.82000000
   O     -4.24000000    31.39000000    15.37000000
   C     -1.61000000    32.89000000    15.09000000
   C     -0.55000000    33.51000000    14.19000000
   C     -1.41000000    33.40000000    16.51000000
   C     -0.46000000    35.03000000    14.13000000
   H     -2.42000000    31.30000000    13.03000000
   H     -1.00000000    30.87000000    15.57000000
   H     -2.51000000    33.39000000    14.74000000
   H     -0.68000000    33.25000000    13.14000000
   H      0.32000000    32.99000000    14.59000000
   H     -1.33000000    34.47000000    16.68000000
   H     -2.19000000    33.03000000    17.18000000
   H     -0.46000000    32.96000000    16.82000000
   H     -0.03000000    35.33000000    15.08000000
   H      0.19000000    35.38000000    13.33000000
   H     -1.45000000    35.50000000    14.11000000
   N     -3.03000000    30.49000000    17.00000000
   C     -4.02000000    30.12000000    18.00000000
   C     -4.07000000    31.19000000    19.08000000
   O     -3.18000000    32.01000000    19.31000000
   C     -3.62000000    28.83000000    18.70000000
   C     -3.46000000    27.54000000    17.90000000
   O     -2.42000000    29.04000000    19.40000000
   H     -2.09000000    30.20000000    17.23000000
   H     -5.01000000    30.04000000    17.55000000
   H     -4.42000000    28.61000000    19.42000000
   H     -1.77000000    28.97000000    18.70000000
   H     -4.22000000    26.85000000    18.26000000
   H     -3.51000000    27.66000000    16.82000000
   H     -2.50000000    27.09000000    18.16000000
   N     -5.10000000    31.13000000    19.93000000
   C     -5.22000000    31.98000000    21.09000000
   C     -4.09000000    31.88000000    22.10000000
   O     -3.73000000    32.89000000    22.71000000
   C     -6.55000000    31.72000000    21.80000000
   C     -7.81000000    32.01000000    20.98000000
   O     -6.59000000    30.39000000    22.29000000
   H     -5.74000000    30.36000000    19.87000000
   H     -5.16000000    33.01000000    20.74000000
   H     -6.55000000    32.43000000    22.62000000
   H     -7.31000000    30.44000000    22.92000000
   H     -8.73000000    31.59000000    21.38000000
   H     -8.03000000    33.07000000    20.89000000
   H     -7.75000000    31.67000000    19.95000000
   N     -3.48000000    30.69000000    22.13000000
   C     -2.39000000    30.29000000    23.01000000
   C     -1.07000000    30.89000000    22.55000000
   O     -0.37000000    31.43000000    23.40000000
   C     -2.32000000    28.77000000    23.12000000
   C     -1.10000000    28.18000000    23.81000000
   C     -1.05000000    26.65000000    23.88000000
   C     -1.85000000    26.19000000    25.10000000
   N     -2.08000000    24.74000000    25.04000000
   H     -3.96000000    29.98000000    21.61000000
   H     -2.56000000    30.74000000    23.99000000
   H     -2.35000000    28.30000000    22.13000000
   H     -3.17000000    28.40000000    23.68000000
   H     -1.00000000    28.58000000    24.82000000
   H     -0.23000000    28.44000000    23.21000000
   H     -0.06000000    26.24000000    24.05000000
   H     -1.44000000    26.24000000    22.95000000
   H     -2.81000000    26.70000000    25.02000000
   H     -1.43000000    26.44000000    26.07000000
   H     -2.74000000    24.44000000    25.74000000
   H     -2.28000000    24.43000000    24.10000000
   H     -1.25000000    24.24000000    25.30000000
   N     -0.97000000    30.95000000    21.22000000
   C      0.19000000    31.51000000    20.55000000
   C      0.33000000    33.02000000    20.65000000
   O      1.41000000    33.44000000    21.05000000
   C      0.30000000    31.03000000    19.11000000
   C      0.88000000    29.62000000    19.05000000
   C      0.83000000    28.79000000    17.78000000
   O     -0.26000000    28.76000000    17.17000000
   O      1.85000000    28.23000000    17.31000000
   H     -1.70000000    30.52000000    20.67000000
   H      1.04000000    31.16000000    21.13000000
   H      0.88000000    31.76000000    18.53000000
   H     -0.70000000    31.05000000    18.69000000
   H      0.33000000    29.04000000    19.79000000
   H      1.94000000    29.58000000    19.29000000
   N     -0.70000000    33.85000000    20.41000000
   C     -0.81000000    35.23000000    20.82000000
   H     -1.80800000    35.41100000    21.22000000
   H     -0.06700000    35.44100000    21.58900000
   H     -0.64000000    35.87900000    19.96100000
   H     -1.60000000    33.56000000    20.06000000
  Ca      0.45000000    26.81000000    15.33000000
   O     -2.20000000    26.59000000    14.83000000
   H     -2.77000000    26.58000000    14.06000000
   H     -2.35000000    25.73000000    15.23000000
   O     -0.38000000    25.34000000    17.31000000
   H     -1.20000000    24.96000000    17.61000000
   H      0.27000000    25.03000000    17.94000000

Ca 1.00



