%chk=loop2.apoCaM-CA-Ng.Init295.run19.water3.chk
%nprocshared=20
%mem=10GB
%nosave
#b3lyp/svp scf=(tight,noincore,xqc) Test 
#IOP(5/87=12) Density=Current Pop=(MK,readradii) iop(6/33=2) iop(6/42=6)

loop2.apoCaM-CA-Ng.Init295.run19.water3 

   -2  1 
   C     72.61000000    39.27000000    39.64000000
   C     71.79000000    38.97000000    38.39000000
   O     70.57000000    38.82000000    38.35000000
   H     73.50500000    39.82700000    39.36200000
   H     72.01400000    39.86400000    40.33300000
   H     72.89900000    38.33400000    40.11900000
   N     72.48000000    38.89000000    37.25000000
   C     71.91000000    39.13000000    35.93000000
   C     71.35000000    40.53000000    35.75000000
   O     72.04000000    41.54000000    35.70000000
   C     72.93000000    38.88000000    34.83000000
   C     74.32000000    39.50000000    34.88000000
   O     74.96000000    39.33000000    35.93000000
   O     74.76000000    40.14000000    33.90000000
   H     73.48000000    38.88000000    37.34000000
   H     71.11000000    38.43000000    35.70000000
   H     72.56000000    39.19000000    33.85000000
   H     73.08000000    37.80000000    34.76000000
   N     70.03000000    40.62000000    35.59000000
   C     69.26000000    41.83000000    35.38000000
   C     69.07000000    42.70000000    36.62000000
   O     68.94000000    42.08000000    37.68000000
   C     67.91000000    41.45000000    34.79000000
   H     69.54000000    39.74000000    35.69000000
   H     69.80000000    42.41000000    34.63000000
   H     67.37000000    40.83000000    35.51000000
   H     67.38000000    42.40000000    34.68000000
   H     68.09000000    40.97000000    33.82000000
   N     68.76000000    43.99000000    36.53000000
   C     68.88000000    44.96000000    35.46000000
   C     70.29000000    45.31000000    35.00000000
   O     71.19000000    45.24000000    35.83000000
   C     68.03000000    46.19000000    35.74000000
   C     66.61000000    45.95000000    36.23000000
   O     66.13000000    46.50000000    37.25000000
   O     65.87000000    45.34000000    35.44000000
   H     68.44000000    44.42000000    37.38000000
   H     68.39000000    44.64000000    34.54000000
   H     67.99000000    46.81000000    34.84000000
   H     68.56000000    46.63000000    36.58000000
   N     70.54000000    45.68000000    33.74000000
   C     71.90000000    45.90000000    33.29000000
   C     72.74000000    44.63000000    33.37000000
   O     72.39000000    43.62000000    32.77000000
   H     69.81000000    45.58000000    33.05000000
   H     72.38000000    46.75000000    33.78000000
   H     71.81000000    46.20000000    32.25000000
   N     73.89000000    44.58000000    34.05000000
   C     74.56000000    45.64000000    34.77000000
   C     74.57000000    45.41000000    36.28000000
   O     74.93000000    46.36000000    36.97000000
   C     75.95000000    45.97000000    34.24000000
   C     75.95000000    46.44000000    32.79000000
   N     77.05000000    46.30000000    32.05000000
   O     74.93000000    46.80000000    32.21000000
   H     74.27000000    43.65000000    34.17000000
   H     74.09000000    46.62000000    34.63000000
   H     76.65000000    45.13000000    34.29000000
   H     76.32000000    46.75000000    34.91000000
   H     77.87000000    46.09000000    32.61000000
   H     77.19000000    46.66000000    31.12000000
   N     74.13000000    44.26000000    36.78000000
   C     74.05000000    43.97000000    38.20000000
   C     73.40000000    45.11000000    38.98000000
   O     73.86000000    45.37000000    40.09000000
   H     74.28000000    43.45000000    36.20000000
   H     75.03000000    43.72000000    38.60000000
   H     73.33000000    43.16000000    38.35000000
   N     72.42000000    45.80000000    38.41000000
   C     71.73000000    46.89000000    39.08000000
   C     70.71000000    46.38000000    40.09000000
   O     69.86000000    45.55000000    39.78000000
   C     71.09000000    47.90000000    38.13000000
   C     70.58000000    49.10000000    38.92000000
   O     72.16000000    48.36000000    37.34000000
   H     72.01000000    45.56000000    37.51000000
   H     72.49000000    47.40000000    39.68000000
   H     70.37000000    47.42000000    37.48000000
   H     72.79000000    47.65000000    37.20000000
   H     71.40000000    49.61000000    39.43000000
   H     70.28000000    49.77000000    38.12000000
   H     69.75000000    48.92000000    39.60000000
   N     70.81000000    46.77000000    41.36000000
   C     69.98000000    46.26000000    42.43000000
   C     68.93000000    47.23000000    42.94000000
   O     69.15000000    48.40000000    43.24000000
   C     70.73000000    45.61000000    43.59000000
   C     71.46000000    44.34000000    43.18000000
   C     71.72000000    46.55000000    44.27000000
   C     70.63000000    43.28000000    42.46000000
   H     71.67000000    47.21000000    41.66000000
   H     69.38000000    45.47000000    41.97000000
   H     69.99000000    45.33000000    44.35000000
   H     71.96000000    43.80000000    43.99000000
   H     72.21000000    44.68000000    42.47000000
   H     72.21000000    46.04000000    45.09000000
   H     72.47000000    46.79000000    43.51000000
   H     71.15000000    47.43000000    44.58000000
   H     71.28000000    42.42000000    42.29000000
   H     69.69000000    43.13000000    42.99000000
   H     70.43000000    43.71000000    41.48000000
   N     67.75000000    46.68000000    43.22000000
   C     66.62000000    47.39000000    43.77000000
   C     65.85000000    46.36000000    44.58000000
   O     65.47000000    45.28000000    44.13000000
   C     65.66000000    47.98000000    42.72000000
   C     65.46000000    47.02000000    41.56000000
   O     66.26000000    46.90000000    40.61000000
   O     64.43000000    46.31000000    41.43000000
   H     67.69000000    45.67000000    43.12000000
   H     66.99000000    48.19000000    44.41000000
   H     66.30000000    48.82000000    42.45000000
   H     64.68000000    48.22000000    43.13000000
   N     65.61000000    46.76000000    45.83000000
   C     64.85000000    45.96000000    46.77000000
   C     65.50000000    44.62000000    47.10000000
   O     66.71000000    44.45000000    47.05000000
   C     64.62000000    46.85000000    48.00000000
   C     63.85000000    46.16000000    49.09000000
   C     64.53000000    45.46000000    50.09000000
   C     62.47000000    46.41000000    49.21000000
   C     63.84000000    44.87000000    51.16000000
   C     61.82000000    45.88000000    50.33000000
   C     62.47000000    45.15000000    51.32000000
   H     65.86000000    47.74000000    45.95000000
   H     63.90000000    45.82000000    46.27000000
   H     64.09000000    47.74000000    47.67000000
   H     65.54000000    47.24000000    48.44000000
   H     65.59000000    45.29000000    50.00000000
   H     61.95000000    46.99000000    48.46000000
   H     64.40000000    44.23000000    51.82000000
   H     60.77000000    46.13000000    50.45000000
   H     61.96000000    44.77000000    52.19000000
   N     64.74000000    43.57000000    47.42000000
   C     65.28000000    42.32000000    47.91000000
   C     66.27000000    41.67000000    46.96000000
   O     67.15000000    40.99000000    47.49000000
   C     64.03000000    41.48000000    48.18000000
   C     62.96000000    42.02000000    47.24000000
   C     63.32000000    43.49000000    47.13000000
   H     65.86000000    42.44000000    48.82000000
   H     64.17000000    40.41000000    48.02000000
   H     63.87000000    41.62000000    49.25000000
   H     63.05000000    41.46000000    46.31000000
   H     61.99000000    41.94000000    47.74000000
   H     63.17000000    43.75000000    46.08000000
   H     62.85000000    44.08000000    47.92000000
   N     66.31000000    42.05000000    45.68000000
   C     67.34000000    41.68000000    44.73000000
   C     68.78000000    41.96000000    45.15000000
   O     69.71000000    41.32000000    44.67000000
   C     67.00000000    42.28000000    43.37000000
   C     65.67000000    41.74000000    42.83000000
   C     65.42000000    42.11000000    41.37000000
   O     65.63000000    41.31000000    40.43000000
   O     64.96000000    43.24000000    41.12000000
   H     65.65000000    42.74000000    45.36000000
   H     67.32000000    40.59000000    44.77000000
   H     67.75000000    41.95000000    42.65000000
   H     67.00000000    43.35000000    43.52000000
   H     64.82000000    42.03000000    43.44000000
   H     65.73000000    40.65000000    42.79000000
   N     68.98000000    42.86000000    46.12000000
   C     70.28000000    42.99000000    46.74000000
   H     70.96500000    43.48000000    46.04800000
   H     70.19200000    43.58800000    47.64700000
   H     70.66400000    42.00100000    46.99100000
   H     68.27000000    43.55000000    46.30000000
  Ca     65.15000000    45.15000000    39.22000000
   O     64.49000000    43.15000000    37.68000000
   H     63.70000000    43.00000000    37.15000000
   H     64.83000000    42.27000000    37.85000000
   O     62.46000000    44.90000000    40.46000000
   H     61.82000000    45.51000000    40.10000000
   H     62.89000000    45.38000000    41.16000000
   O     67.52000000    44.18000000    39.21000000
   H     67.84000000    43.29000000    39.09000000
   H     68.30000000    44.69000000    39.41000000

Ca 1.00



