%chk=loop1.apoCaM-CA-Ng.Init295.run52.water7.chk
%nprocshared=20
%mem=10GB
%nosave
#b3lyp/svp scf=(tight,noincore,xqc) Test 
#IOP(5/87=12) Density=Current Pop=(MK,readradii) iop(6/33=2) iop(6/42=6)

loop1.apoCaM-CA-Ng.Init295.run52.water7 

   0  1 
   C     98.66000000    84.19000000    30.92000000
   C     98.41000000    85.39000000    30.02000000
   O     98.50000000    86.52000000    30.51000000
   H     99.49600000    84.40400000    31.58600000
   H     97.76700000    83.98700000    31.51200000
   H     98.89700000    83.32000000    30.30800000
   N     98.20000000    85.30000000    28.71000000
   C     98.35000000    86.37000000    27.75000000
   C     97.13000000    87.29000000    27.70000000
   O     96.00000000    86.93000000    27.37000000
   C     98.50000000    85.72000000    26.38000000
   C     98.78000000    86.76000000    25.30000000
   O     98.74000000    86.42000000    24.09000000
   O     99.01000000    87.94000000    25.62000000
   H     98.21000000    84.36000000    28.32000000
   H     99.28000000    86.92000000    27.92000000
   H     97.67000000    85.06000000    26.12000000
   H     99.40000000    85.11000000    26.44000000
   N     97.37000000    88.58000000    27.93000000
   C     96.37000000    89.62000000    27.78000000
   C     95.74000000    89.85000000    26.42000000
   O     94.67000000    90.44000000    26.32000000
   C     96.88000000    90.97000000    28.29000000
   C     98.04000000    91.57000000    27.50000000
   C     98.40000000    92.99000000    27.92000000
   C     99.52000000    93.67000000    27.15000000
   N     99.18000000    94.03000000    25.76000000
   H     98.30000000    88.86000000    28.21000000
   H     95.53000000    89.32000000    28.41000000
   H     97.24000000    90.91000000    29.32000000
   H     96.09000000    91.72000000    28.29000000
   H     97.85000000    91.57000000    26.42000000
   H     98.86000000    90.87000000    27.68000000
   H     98.66000000    93.07000000    28.98000000
   H     97.49000000    93.56000000    27.75000000
   H    100.30000000    92.91000000    27.11000000
   H     99.93000000    94.60000000    27.56000000
   H     98.35000000    94.61000000    25.73000000
   H     99.95000000    94.42000000    25.24000000
   H     98.91000000    93.22000000    25.22000000
   N     96.50000000    89.62000000    25.34000000
   C     96.05000000    89.88000000    23.99000000
   C     95.41000000    88.62000000    23.43000000
   O     94.23000000    88.63000000    23.09000000
   C     97.18000000    90.33000000    23.06000000
   C     98.06000000    91.43000000    23.64000000
   O     97.46000000    92.43000000    24.08000000
   O     99.30000000    91.25000000    23.64000000
   H     97.45000000    89.33000000    25.55000000
   H     95.25000000    90.62000000    24.08000000
   H     96.72000000    90.76000000    22.17000000
   H     97.74000000    89.43000000    22.84000000
   N     96.06000000    87.46000000    23.44000000
   C     95.47000000    86.17000000    23.14000000
   C     95.14000000    85.85000000    21.69000000
   O     94.51000000    84.83000000    21.42000000
   H     97.04000000    87.46000000    23.67000000
   H     94.55000000    86.10000000    23.72000000
   H     96.17000000    85.44000000    23.56000000
   N     95.56000000    86.73000000    20.78000000
   C     95.06000000    86.67000000    19.42000000
   C     95.83000000    85.68000000    18.56000000
   O     97.05000000    85.56000000    18.60000000
   C     94.93000000    88.09000000    18.88000000
   C     94.08000000    89.11000000    19.62000000
   O     93.10000000    88.68000000    20.26000000
   O     94.44000000    90.31000000    19.67000000
   H     96.05000000    87.56000000    21.07000000
   H     94.06000000    86.24000000    19.49000000
   H     94.60000000    87.98000000    17.85000000
   H     95.99000000    88.35000000    18.88000000
   N     95.11000000    84.85000000    17.79000000
   C     95.74000000    83.93000000    16.86000000
   C     96.26000000    82.68000000    17.55000000
   O     96.45000000    81.68000000    16.86000000
   H     94.11000000    84.96000000    17.76000000
   H     96.55000000    84.39000000    16.30000000
   H     95.01000000    83.63000000    16.11000000
   N     96.36000000    82.69000000    18.88000000
   C     96.85000000    81.55000000    19.63000000
   C     98.32000000    81.37000000    19.29000000
   O     98.97000000    82.36000000    18.96000000
   C     96.69000000    81.58000000    21.15000000
   C     97.39000000    82.76000000    21.82000000
   O     95.32000000    81.62000000    21.49000000
   H     96.22000000    83.59000000    19.31000000
   H     96.24000000    80.74000000    19.23000000
   H     97.12000000    80.63000000    21.46000000
   H     95.21000000    80.91000000    22.12000000
   H     98.44000000    82.81000000    21.54000000
   H     96.81000000    83.64000000    21.50000000
   H     97.46000000    82.65000000    22.90000000
   N     98.83000000    80.14000000    19.19000000
   C    100.18000000    79.85000000    18.75000000
   C    100.26000000    78.70000000    17.76000000
   O    101.33000000    78.12000000    17.56000000
   C    101.10000000    79.66000000    19.96000000
   C    100.97000000    78.32000000    20.67000000
   C    100.91000000    80.74000000    21.01000000
   C    101.92000000    77.95000000    21.81000000
   H     98.09000000    79.46000000    19.23000000
   H    100.57000000    80.72000000    18.21000000
   H    102.13000000    79.68000000    19.62000000
   H    101.06000000    77.44000000    20.02000000
   H     99.94000000    78.28000000    21.01000000
   H    100.91000000    81.74000000    20.58000000
   H     99.95000000    80.52000000    21.49000000
   H    101.68000000    80.74000000    21.79000000
   H    101.86000000    78.76000000    22.54000000
   H    101.64000000    77.00000000    22.25000000
   H    102.94000000    77.83000000    21.42000000
   N     99.16000000    78.08000000    17.33000000
   C     99.17000000    76.73000000    16.80000000
   C     98.46000000    75.62000000    17.58000000
   O     97.80000000    75.90000000    18.58000000
   C     98.87000000    76.70000000    15.31000000
   C     97.46000000    77.16000000    14.96000000
   O     99.87000000    77.45000000    14.66000000
   H     98.30000000    78.47000000    17.69000000
   H    100.19000000    76.36000000    16.76000000
   H     99.08000000    75.68000000    15.00000000
   H     99.75000000    78.39000000    14.83000000
   H     96.67000000    76.47000000    15.27000000
   H     97.25000000    78.11000000    15.44000000
   H     97.27000000    77.31000000    13.90000000
   N     98.55000000    74.33000000    17.25000000
   C     97.84000000    73.28000000    17.96000000
   C     98.74000000    72.83000000    19.10000000
   O     98.34000000    72.66000000    20.25000000
   C     97.44000000    72.18000000    16.98000000
   C     96.83000000    70.94000000    17.62000000
   O     98.60000000    71.84000000    16.25000000
   H     99.08000000    74.05000000    16.44000000
   H     96.96000000    73.76000000    18.37000000
   H     96.81000000    72.61000000    16.19000000
   H     98.40000000    71.11000000    15.66000000
   H     97.66000000    70.41000000    18.08000000
   H     96.04000000    71.20000000    18.33000000
   H     96.55000000    70.20000000    16.87000000
   N    100.01000000    72.66000000    18.74000000
   C    101.05000000    72.13000000    19.60000000
   C    101.54000000    73.15000000    20.62000000
   O    101.16000000    74.31000000    20.51000000
   C    102.26000000    71.55000000    18.86000000
   C    101.81000000    70.32000000    18.08000000
   C    102.88000000    69.51000000    17.38000000
   C    102.12000000    68.30000000    16.84000000
   N    102.91000000    67.14000000    16.41000000
   H    100.26000000    72.92000000    17.80000000
   H    100.54000000    71.39000000    20.21000000
   H    103.10000000    71.20000000    19.46000000
   H    102.56000000    72.28000000    18.11000000
   H    101.08000000    70.68000000    17.35000000
   H    101.48000000    69.66000000    18.89000000
   H    103.76000000    69.25000000    17.97000000
   H    103.22000000    69.98000000    16.45000000
   H    101.50000000    68.70000000    16.03000000
   H    101.55000000    68.02000000    17.73000000
   H    103.61000000    66.96000000    17.12000000
   H    102.41000000    66.29000000    16.21000000
   H    103.49000000    67.31000000    15.60000000
   N    102.33000000    72.66000000    21.58000000
   C    103.02000000    73.31000000    22.67000000
   C    102.97000000    72.48000000    23.94000000
   O    103.02000000    71.25000000    23.88000000
   C    104.50000000    73.44000000    22.32000000
   C    104.88000000    74.15000000    21.02000000
   C    106.37000000    74.13000000    20.72000000
   O    107.11000000    74.99000000    21.24000000
   O    106.86000000    73.29000000    19.94000000
   H    102.51000000    71.67000000    21.48000000
   H    102.52000000    74.27000000    22.81000000
   H    104.83000000    72.43000000    22.10000000
   H    105.12000000    73.91000000    23.08000000
   H    104.46000000    75.15000000    20.89000000
   H    104.32000000    73.63000000    20.23000000
   N    102.82000000    73.03000000    25.15000000
   C    102.30000000    74.32000000    25.53000000
   H    101.31800000    74.19500000    25.98700000
   H    102.97600000    74.78900000    26.24500000
   H    102.21100000    74.95100000    24.64600000
   H    102.66000000    72.25000000    25.78000000
  Ca     91.95000000    89.60000000    22.42000000
   O     90.23000000    88.37000000    24.11000000
   H     90.39000000    87.70000000    24.77000000
   H     89.46000000    88.84000000    24.41000000
   O     92.12000000    86.82000000    22.65000000
   H     92.36000000    86.13000000    23.28000000
   H     91.76000000    86.34000000    21.90000000
   O     92.58000000    90.74000000    24.72000000
   H     92.15000000    91.39000000    25.28000000
   H     93.37000000    90.49000000    25.19000000
   O     89.82000000    88.68000000    21.12000000
   H     90.03000000    88.42000000    20.23000000
   H     88.86000000    88.66000000    21.16000000
   O     93.71000000    91.48000000    21.79000000
   H     94.07000000    92.36000000    21.91000000
   H     94.05000000    91.19000000    20.94000000
   O     90.99000000    91.18000000    20.32000000
   H     91.54000000    91.37000000    19.56000000
   H     90.18000000    91.65000000    20.15000000
   O     89.91000000    91.26000000    23.16000000
   H     89.96000000    92.12000000    22.74000000
   H     89.04000000    91.24000000    23.56000000

Ca 1.00



