%chk=loop3.apoCaM-CA-Ng.Init295.run12.water3.chk
%nprocshared=20
%mem=10GB
%nosave
#b3lyp/svp scf=(tight,noincore,xqc) Test 
#IOP(5/87=12) Density=Current Pop=(MK,readradii) iop(6/33=2) iop(6/42=6)

loop3.apoCaM-CA-Ng.Init295.run12.water3 

   0  1 
   C    101.63000000    35.55000000    67.61000000
   C    102.30000000    35.41000000    68.97000000
   O    101.75000000    34.78000000    69.87000000
   H    100.73500000    36.16400000    67.70800000
   H    102.32000000    36.02300000    66.91100000
   H    101.35400000    34.56400000    67.23700000
   N    103.54000000    35.89000000    69.10000000
   C    104.24000000    36.06000000    70.36000000
   C    105.19000000    37.24000000    70.21000000
   O    105.83000000    37.42000000    69.18000000
   C    105.02000000    34.76000000    70.59000000
   C    105.58000000    34.88000000    72.00000000
   O    104.97000000    34.47000000    73.01000000
   O    106.74000000    35.32000000    72.14000000
   H    103.95000000    36.27000000    68.26000000
   H    103.55000000    36.22000000    71.19000000
   H    105.82000000    34.76000000    69.85000000
   H    104.32000000    33.93000000    70.53000000
   N    105.34000000    38.04000000    71.27000000
   C    106.26000000    39.16000000    71.40000000
   C    107.75000000    38.90000000    71.26000000
   O    108.39000000    39.85000000    70.82000000
   C    105.90000000    39.90000000    72.68000000
   C    104.70000000    40.83000000    72.69000000
   C    104.40000000    41.41000000    74.07000000
   C    103.08000000    42.18000000    74.13000000
   N    102.93000000    42.98000000    75.36000000
   H    104.76000000    37.82000000    72.06000000
   H    105.99000000    39.85000000    70.60000000
   H    106.78000000    40.51000000    72.90000000
   H    105.83000000    39.14000000    73.46000000
   H    103.86000000    40.18000000    72.46000000
   H    104.77000000    41.58000000    71.90000000
   H    105.29000000    41.98000000    74.31000000
   H    104.49000000    40.60000000    74.80000000
   H    102.24000000    41.51000000    73.99000000
   H    102.97000000    42.81000000    73.25000000
   H    102.26000000    43.71000000    75.24000000
   H    102.63000000    42.43000000    76.16000000
   H    103.82000000    43.37000000    75.64000000
   N    108.24000000    37.71000000    71.62000000
   C    109.61000000    37.29000000    71.41000000
   C    109.93000000    36.28000000    70.32000000
   O    111.07000000    36.04000000    69.91000000
   C    110.28000000    36.90000000    72.72000000
   C    109.56000000    35.76000000    73.42000000
   O    109.38000000    34.63000000    72.92000000
   O    109.03000000    36.01000000    74.53000000
   H    107.60000000    37.05000000    72.03000000
   H    110.17000000    38.16000000    71.05000000
   H    110.27000000    37.79000000    73.36000000
   H    111.36000000    36.73000000    72.67000000
   N    108.83000000    35.89000000    69.67000000
   C    108.69000000    34.95000000    68.57000000
   C    108.49000000    33.49000000    68.97000000
   O    108.28000000    32.68000000    68.08000000
   H    107.97000000    36.31000000    69.96000000
   H    109.64000000    34.94000000    68.03000000
   H    107.87000000    35.23000000    67.91000000
   N    108.67000000    33.09000000    70.23000000
   C    108.51000000    31.75000000    70.76000000
   C    107.24000000    31.72000000    71.61000000
   O    107.05000000    32.52000000    72.53000000
   C    109.77000000    31.42000000    71.55000000
   C    109.80000000    30.08000000    72.28000000
   N    109.55000000    29.01000000    71.52000000
   O    109.73000000    30.04000000    73.50000000
   H    108.98000000    33.65000000    71.01000000
   H    108.43000000    31.05000000    69.92000000
   H    109.82000000    32.20000000    72.32000000
   H    110.69000000    31.54000000    70.98000000
   H    109.72000000    29.11000000    70.53000000
   H    109.52000000    28.14000000    72.03000000
   N    106.33000000    30.82000000    71.26000000
   C    104.95000000    30.78000000    71.70000000
   C    104.60000000    30.30000000    73.10000000
   O    103.47000000    29.99000000    73.47000000
   H    106.55000000    30.32000000    70.41000000
   H    104.35000000    30.26000000    70.95000000
   H    104.49000000    31.76000000    71.63000000
   N    105.61000000    30.24000000    73.97000000
   C    105.44000000    30.08000000    75.40000000
   C    105.29000000    31.40000000    76.15000000
   O    105.94000000    32.37000000    75.76000000
   C    106.67000000    29.35000000    75.93000000
   C    106.83000000    27.94000000    75.40000000
   C    107.43000000    27.63000000    74.17000000
   C    106.47000000    26.90000000    76.27000000
   C    107.69000000    26.32000000    73.76000000
   C    106.55000000    25.56000000    75.85000000
   C    107.20000000    25.31000000    74.62000000
   O    107.45000000    24.03000000    74.24000000
   H    106.49000000    30.57000000    73.59000000
   H    104.63000000    29.38000000    75.56000000
   H    106.53000000    29.31000000    77.01000000
   H    107.57000000    29.92000000    75.69000000
   H    107.79000000    28.45000000    73.57000000
   H    106.12000000    27.17000000    77.25000000
   H    108.32000000    26.13000000    72.91000000
   H    106.16000000    24.77000000    76.47000000
   H    107.07000000    23.39000000    74.85000000
   N    104.29000000    31.38000000    77.03000000
   C    103.88000000    32.48000000    77.88000000
   C    105.00000000    33.16000000    78.66000000
   O    106.18000000    32.81000000    78.57000000
   C    102.85000000    33.41000000    77.25000000
   C    101.63000000    32.52000000    77.05000000
   C    103.30000000    34.01000000    75.92000000
   C    100.38000000    33.18000000    76.47000000
   H    103.99000000    30.44000000    77.26000000
   H    103.32000000    32.00000000    78.68000000
   H    102.49000000    34.21000000    77.91000000
   H    101.40000000    32.07000000    78.02000000
   H    101.88000000    31.73000000    76.35000000
   H    102.66000000    34.75000000    75.43000000
   H    104.27000000    34.47000000    76.05000000
   H    103.35000000    33.18000000    75.21000000
   H     99.58000000    32.45000000    76.32000000
   H    100.04000000    33.90000000    77.22000000
   H    100.66000000    33.62000000    75.52000000
   N    104.60000000    34.02000000    79.60000000
   C    105.48000000    34.72000000    80.51000000
   C    105.95000000    33.97000000    81.75000000
   O    107.10000000    34.06000000    82.19000000
   C    104.84000000    36.01000000    81.00000000
   O    104.06000000    36.68000000    80.03000000
   H    103.61000000    34.16000000    79.74000000
   H    106.36000000    35.14000000    80.03000000
   H    105.61000000    36.68000000    81.39000000
   H    104.23000000    35.80000000    81.88000000
   H    103.62000000    37.42000000    80.47000000
   N    104.96000000    33.33000000    82.37000000
   C    105.06000000    32.54000000    83.58000000
   C    106.07000000    33.05000000    84.59000000
   O    107.02000000    32.39000000    85.02000000
   C    105.30000000    31.09000000    83.17000000
   H    104.02000000    33.21000000    82.01000000
   H    104.10000000    32.49000000    84.09000000
   H    104.92000000    30.35000000    83.86000000
   H    104.71000000    30.90000000    82.27000000
   H    106.37000000    30.95000000    83.02000000
   N    105.88000000    34.25000000    85.14000000
   C    104.80000000    35.21000000    85.05000000
   C    103.64000000    34.91000000    85.99000000
   O    103.72000000    34.57000000    87.17000000
   C    105.21000000    36.68000000    85.16000000
   H    106.54000000    34.54000000    85.85000000
   H    104.45000000    35.14000000    84.02000000
   H    105.90000000    37.01000000    84.39000000
   H    104.33000000    37.31000000    85.30000000
   H    105.82000000    36.68000000    86.06000000
   N    102.40000000    34.84000000    85.48000000
   C    101.89000000    34.80000000    84.13000000
   C    100.60000000    34.01000000    83.93000000
   O    100.38000000    33.56000000    82.81000000
   C    101.80000000    36.22000000    83.58000000
   C    100.66000000    37.04000000    84.17000000
   C    100.53000000    38.34000000    83.39000000
   O     99.50000000    38.59000000    82.73000000
   O    101.49000000    39.15000000    83.36000000
   H    101.70000000    34.60000000    86.17000000
   H    102.57000000    34.19000000    83.53000000
   H    101.66000000    36.21000000    82.50000000
   H    102.76000000    36.69000000    83.76000000
   H    100.89000000    37.15000000    85.23000000
   H     99.72000000    36.49000000    84.14000000
   N     99.80000000    33.75000000    84.97000000
   C     98.49000000    33.13000000    84.97000000
   H     97.78100000    33.78000000    84.45700000
   H     98.54100000    32.17100000    84.45500000
   H     98.16100000    32.97400000    85.99700000
   H     99.98000000    34.25000000    85.83000000
  Ca    107.16800000    34.27000000    74.45000000
   O    106.99800000    34.84000000    76.98000000
   H    107.02800000    34.05000000    77.52000000
   H    107.40800000    35.52000000    77.52000000
   O    105.47800000    36.45000000    74.90000000
   H    104.75800000    36.46000000    74.27000000
   H    105.16800000    36.99000000    75.63000000
   O    109.15800000    32.35000000    75.15000000
   H    109.49800000    31.56000000    74.74000000
   H    109.20800000    32.18000000    76.09000000

Ca 1.00



