%chk=loop2.holoCaM.run28.water1.chk
%nprocshared=20
%mem=10GB
%nosave
#b3lyp/svp scf=(tight,noincore,xqc) Test 
#IOP(5/87=12) Density=Current Pop=(MK,readradii) iop(6/33=2) iop(6/42=6)

loop2.holoCaM.run28.water1 

   -2  1 
   C     58.03000000    51.22000000   117.72300000
   C     58.24000000    51.95000000   119.04300000
   O     59.34000000    52.08000000   119.56300000
   H     57.29000000    51.75400000   117.12700000
   H     58.97300000    51.17700000   117.17700000
   H     57.67600000    50.20800000   117.91900000
   N     57.21000000    52.46000000   119.72300000
   C     57.45000000    53.43000000   120.76300000
   C     57.80000000    52.68000000   122.04300000
   O     56.97000000    51.94000000   122.56300000
   C     56.21000000    54.29000000   121.00300000
   C     56.15000000    55.15000000   122.26300000
   O     57.23000000    55.36000000   122.85300000
   O     55.02000000    55.51000000   122.66300000
   H     56.29000000    52.33000000   119.31300000
   H     58.25000000    54.14000000   120.59300000
   H     55.26000000    53.77000000   120.94300000
   H     56.23000000    55.03000000   120.20300000
   N     59.07000000    52.77000000   122.46300000
   C     59.65000000    51.89000000   123.46300000
   C     59.32000000    52.34000000   124.87300000
   O     59.81000000    51.66000000   125.77300000
   C     61.15000000    51.86000000   123.16300000
   H     59.72000000    53.43000000   122.06300000
   H     59.30000000    50.88000000   123.29300000
   H     61.69000000    51.10000000   123.74300000
   H     61.33000000    51.51000000   122.14300000
   H     61.52000000    52.88000000   123.23300000
   N     58.48000000    53.35000000   125.09300000
   C     58.07000000    53.69000000   126.44300000
   C     56.57000000    53.95000000   126.54300000
   O     56.06000000    54.14000000   127.64300000
   C     58.80000000    54.88000000   127.05300000
   C     58.95000000    56.00000000   126.02300000
   O     60.04000000    56.56000000   125.78300000
   O     57.91000000    56.40000000   125.45300000
   H     58.11000000    53.90000000   124.33300000
   H     58.29000000    52.91000000   127.17300000
   H     59.80000000    54.57000000   127.36300000
   H     58.37000000    55.32000000   127.94300000
   N     55.84000000    53.89000000   125.42300000
   C     54.39000000    53.97000000   125.31300000
   C     53.72000000    55.29000000   125.64300000
   O     52.49000000    55.34000000   125.67300000
   H     56.40000000    53.81000000   124.59300000
   H     53.93000000    53.27000000   126.01300000
   H     54.04000000    53.73000000   124.31300000
   N     54.54000000    56.33000000   125.72300000
   C     54.02000000    57.67000000   125.91300000
   C     53.53000000    58.30000000   124.62300000
   O     53.06000000    59.43000000   124.69300000
   C     55.13000000    58.57000000   126.45300000
   C     55.96000000    59.40000000   125.48300000
   N     56.30000000    60.66000000   125.75300000
   O     56.38000000    58.96000000   124.41300000
   H     55.52000000    56.07000000   125.71300000
   H     53.18000000    57.71000000   126.61300000
   H     55.84000000    58.04000000   127.09300000
   H     54.75000000    59.18000000   127.27300000
   H     55.90000000    61.16000000   126.54300000
   H     56.94000000    61.07000000   125.09300000
   N     53.48000000    57.64000000   123.46300000
   C     53.03000000    58.08000000   122.15300000
   C     53.84000000    59.16000000   121.46300000
   O     53.28000000    59.92000000   120.67300000
   H     53.96000000    56.75000000   123.39300000
   H     52.07000000    58.57000000   122.31300000
   H     52.93000000    57.19000000   121.55300000
   N     55.17000000    59.26000000   121.60300000
   C     56.09000000    60.09000000   120.86300000
   C     57.32000000    59.26000000   120.56300000
   O     57.73000000    58.44000000   121.38300000
   C     56.56000000    61.26000000   121.72300000
   C     57.08000000    62.40000000   120.85300000
   O     55.54000000    61.78000000   122.54300000
   H     55.65000000    58.67000000   122.27300000
   H     55.60000000    60.46000000   119.95300000
   H     57.44000000    61.03000000   122.32300000
   H     55.34000000    61.06000000   123.14300000
   H     56.25000000    62.84000000   120.30300000
   H     57.59000000    63.10000000   121.51300000
   H     57.75000000    61.93000000   120.13300000
   N     57.97000000    59.56000000   119.43300000
   C     59.23000000    59.06000000   118.92300000
   C     60.43000000    59.92000000   119.31300000
   O     60.72000000    60.98000000   118.76300000
   C     59.08000000    58.84000000   117.42300000
   C     57.87000000    57.95000000   117.12300000
   C     60.33000000    58.39000000   116.67300000
   C     57.73000000    57.41000000   115.71300000
   H     57.54000000    60.37000000   119.00300000
   H     59.35000000    58.08000000   119.38300000
   H     58.71000000    59.82000000   117.14300000
   H     56.95000000    58.51000000   117.25300000
   H     57.71000000    57.07000000   117.74300000
   H     60.13000000    58.64000000   115.62300000
   H     61.21000000    58.89000000   117.05300000
   H     60.44000000    57.32000000   116.80300000
   H     58.01000000    58.20000000   115.02300000
   H     58.52000000    56.68000000   115.50300000
   H     56.76000000    56.91000000   115.62300000
   N     61.23000000    59.30000000   120.18300000
   C     62.64000000    59.56000000   120.42300000
   C     63.56000000    59.00000000   119.35300000
   O     63.16000000    57.92000000   118.91300000
   C     63.15000000    58.83000000   121.66300000
   C     62.24000000    59.07000000   122.86300000
   O     61.51000000    58.14000000   123.26300000
   O     62.28000000    60.15000000   123.47300000
   H     60.86000000    58.42000000   120.49300000
   H     62.74000000    60.64000000   120.52300000
   H     64.14000000    59.16000000   122.00300000
   H     63.03000000    57.76000000   121.53300000
   N     64.74000000    59.57000000   119.05300000
   C     65.64000000    59.05000000   118.04300000
   C     65.86000000    57.55000000   117.91300000
   O     65.79000000    57.02000000   116.80300000
   C     66.98000000    59.78000000   118.12300000
   C     67.91000000    59.41000000   116.99300000
   C     67.83000000    60.02000000   115.73300000
   C     68.86000000    58.39000000   117.12300000
   C     68.70000000    59.66000000   114.69300000
   C     69.85000000    58.17000000   116.15300000
   C     69.78000000    58.79000000   114.90300000
   H     65.02000000    60.42000000   119.52300000
   H     65.22000000    59.42000000   117.11300000
   H     67.46000000    59.57000000   119.08300000
   H     66.76000000    60.84000000   118.04300000
   H     67.10000000    60.79000000   115.55300000
   H     69.05000000    57.90000000   118.06300000
   H     68.67000000    60.03000000   113.68300000
   H     70.69000000    57.50000000   116.30300000
   H     70.52000000    58.61000000   114.14300000
   N     66.01000000    56.81000000   119.01300000
   C     66.20000000    55.38000000   119.03300000
   C     65.05000000    54.55000000   118.49300000
   O     65.22000000    53.55000000   117.79300000
   C     66.68000000    54.94000000   120.41300000
   C     67.21000000    56.27000000   120.96300000
   C     66.20000000    57.25000000   120.38300000
   H     67.03000000    55.24000000   118.34300000
   H     65.81000000    54.56000000   120.95300000
   H     67.49000000    54.22000000   120.29300000
   H     67.29000000    56.27000000   122.05300000
   H     68.20000000    56.50000000   120.56300000
   H     65.27000000    57.16000000   120.95300000
   H     66.66000000    58.23000000   120.52300000
   N     63.84000000    55.13000000   118.55300000
   C     62.57000000    54.57000000   118.15300000
   C     62.45000000    54.92000000   116.67300000
   O     61.97000000    54.10000000   115.90300000
   C     61.47000000    55.14000000   119.04300000
   C     61.54000000    54.71000000   120.51300000
   C     60.61000000    55.53000000   121.39300000
   O     60.03000000    56.56000000   121.00300000
   O     60.41000000    55.12000000   122.56300000
   H     63.85000000    55.86000000   119.24300000
   H     62.57000000    53.48000000   118.28300000
   H     60.54000000    54.89000000   118.53300000
   H     61.51000000    56.23000000   119.02300000
   H     62.56000000    54.77000000   120.90300000
   H     61.27000000    53.66000000   120.54300000
   N     62.99000000    56.05000000   116.23300000
   C     63.08000000    56.38000000   114.82300000
   H     64.11700000    56.59700000   114.56700000
   H     62.72800000    55.53700000   114.22900000
   H     62.46400000    57.25500000   114.61400000
   H     63.43000000    56.64000000   116.92300000
  Ca     59.02000000    57.32000000   123.34300000
   O     59.47000000    60.04000000   123.33300000
   H     59.12000000    60.82000000   123.77300000
   H     60.41000000    60.08000000   123.48300000

Ca 1.00



