%chk=loop3.apoCaM-CA-Ng.Init295.run47.water3.chk
%nprocshared=20
%mem=10GB
%nosave
#b3lyp/svp scf=(tight,noincore,xqc) Test 
#IOP(5/87=12) Density=Current Pop=(MK,readradii) iop(6/33=2) iop(6/42=6)

loop3.apoCaM-CA-Ng.Init295.run47.water3 

   0  1 
   C     88.57000000    33.54000000    50.35000000
   C     88.00000000    32.63000000    51.43000000
   O     87.11000000    33.11000000    52.12000000
   H     89.58000000    33.21700000    50.09900000
   H     87.94100000    33.48800000    49.46100000
   H     88.59800000    34.56600000    50.71600000
   N     88.34000000    31.34000000    51.49000000
   C     87.82000000    30.34000000    52.40000000
   C     88.89000000    29.34000000    52.83000000
   O     89.76000000    28.92000000    52.07000000
   C     86.58000000    29.68000000    51.82000000
   C     85.89000000    28.67000000    52.72000000
   O     84.79000000    28.99000000    53.22000000
   O     86.45000000    27.59000000    53.02000000
   H     89.10000000    31.12000000    50.86000000
   H     87.51000000    30.81000000    53.34000000
   H     86.93000000    29.06000000    50.99000000
   H     85.95000000    30.46000000    51.39000000
   N     88.86000000    29.00000000    54.12000000
   C     89.87000000    28.15000000    54.72000000
   C     89.94000000    26.72000000    54.23000000
   O     91.03000000    26.29000000    53.84000000
   C     89.81000000    28.15000000    56.25000000
   C     90.86000000    27.25000000    56.90000000
   C     92.27000000    27.73000000    56.60000000
   C     93.38000000    26.98000000    57.34000000
   N     93.51000000    27.46000000    58.73000000
   H     88.02000000    29.14000000    54.66000000
   H     90.79000000    28.63000000    54.40000000
   H     88.80000000    27.93000000    56.58000000
   H     89.98000000    29.16000000    56.61000000
   H     90.70000000    26.25000000    56.50000000
   H     90.58000000    27.18000000    57.96000000
   H     92.29000000    28.81000000    56.74000000
   H     92.31000000    27.48000000    55.54000000
   H     94.31000000    27.21000000    56.83000000
   H     93.23000000    25.90000000    57.33000000
   H     92.64000000    27.38000000    59.24000000
   H     94.28000000    27.03000000    59.23000000
   H     93.58000000    28.46000000    58.84000000
   N     88.82000000    26.00000000    54.17000000
   C     88.73000000    24.76000000    53.42000000
   C     88.56000000    24.96000000    51.92000000
   O     88.63000000    23.99000000    51.17000000
   C     87.66000000    23.79000000    53.90000000
   C     86.33000000    24.50000000    54.15000000
   O     85.40000000    24.43000000    53.32000000
   O     86.12000000    25.14000000    55.20000000
   H     87.96000000    26.53000000    54.25000000
   H     89.70000000    24.26000000    53.42000000
   H     87.89000000    23.30000000    54.84000000
   H     87.52000000    23.03000000    53.13000000
   N     88.45000000    26.20000000    51.43000000
   C     88.36000000    26.39000000    50.00000000
   C     87.06000000    25.87000000    49.41000000
   O     87.03000000    25.55000000    48.22000000
   H     88.15000000    26.92000000    52.07000000
   H     89.22000000    25.92000000    49.52000000
   H     88.20000000    27.46000000    49.89000000
   N     85.97000000    25.79000000    50.17000000
   C     84.62000000    25.61000000    49.67000000
   C     83.66000000    26.57000000    50.35000000
   O     83.63000000    26.57000000    51.58000000
   C     84.36000000    24.11000000    49.77000000
   C     82.97000000    23.52000000    49.53000000
   N     82.90000000    22.19000000    49.67000000
   O     81.97000000    24.20000000    49.31000000
   H     86.15000000    25.96000000    51.15000000
   H     84.59000000    25.67000000    48.58000000
   H     84.59000000    23.66000000    50.73000000
   H     85.05000000    23.59000000    49.10000000
   H     83.71000000    21.61000000    49.84000000
   H     82.00000000    21.74000000    49.60000000
   N     82.97000000    27.42000000    49.59000000
   C     82.64000000    28.74000000    50.10000000
   C     81.62000000    28.87000000    51.22000000
   O     81.41000000    29.97000000    51.73000000
   H     82.84000000    27.26000000    48.60000000
   H     82.11000000    29.27000000    49.31000000
   H     83.51000000    29.32000000    50.43000000
   N     80.94000000    27.78000000    51.55000000
   C     79.90000000    27.81000000    52.56000000
   C     80.47000000    28.10000000    53.95000000
   O     81.56000000    27.61000000    54.24000000
   C     79.17000000    26.48000000    52.66000000
   C     78.31000000    26.20000000    51.45000000
   C     78.89000000    25.64000000    50.30000000
   C     76.93000000    26.42000000    51.51000000
   C     78.03000000    25.34000000    49.23000000
   C     76.11000000    26.09000000    50.43000000
   C     76.64000000    25.54000000    49.25000000
   O     75.82000000    25.36000000    48.17000000
   H     81.16000000    26.88000000    51.15000000
   H     79.20000000    28.58000000    52.24000000
   H     78.55000000    26.52000000    53.56000000
   H     79.78000000    25.62000000    52.95000000
   H     79.95000000    25.45000000    50.31000000
   H     76.57000000    26.91000000    52.40000000
   H     78.43000000    24.93000000    48.31000000
   H     75.05000000    26.28000000    50.50000000
   H     74.97000000    25.78000000    48.31000000
   N     79.81000000    29.07000000    54.59000000
   C     80.03000000    29.61000000    55.92000000
   C     80.02000000    28.70000000    57.14000000
   O     80.14000000    27.48000000    57.00000000
   C     81.19000000    30.60000000    55.95000000
   C     81.05000000    31.84000000    55.06000000
   C     82.59000000    29.99000000    55.98000000
   C     79.70000000    32.54000000    55.15000000
   H     78.99000000    29.49000000    54.19000000
   H     79.16000000    30.25000000    56.08000000
   H     81.06000000    31.00000000    56.95000000
   H     81.24000000    31.48000000    54.05000000
   H     81.67000000    32.67000000    55.39000000
   H     82.69000000    29.16000000    56.68000000
   H     82.91000000    29.62000000    55.00000000
   H     83.26000000    30.78000000    56.31000000
   H     79.53000000    32.88000000    56.18000000
   H     79.80000000    33.44000000    54.54000000
   H     78.86000000    31.94000000    54.82000000
   N     79.84000000    29.23000000    58.35000000
   C     80.08000000    28.60000000    59.63000000
   C     78.79000000    28.44000000    60.44000000
   O     78.65000000    27.44000000    61.14000000
   C     81.06000000    29.47000000    60.41000000
   O     80.59000000    30.77000000    60.65000000
   H     79.60000000    30.20000000    58.49000000
   H     80.42000000    27.57000000    59.49000000
   H     81.98000000    29.53000000    59.83000000
   H     81.38000000    29.03000000    61.35000000
   H     81.42000000    31.25000000    60.67000000
   N     77.77000000    29.26000000    60.20000000
   C     76.43000000    29.20000000    60.74000000
   C     76.48000000    29.03000000    62.25000000
   O     76.05000000    28.00000000    62.76000000
   C     75.70000000    28.15000000    59.91000000
   H     77.96000000    30.07000000    59.61000000
   H     75.89000000    30.13000000    60.53000000
   H     76.11000000    27.17000000    60.18000000
   H     74.63000000    28.23000000    60.10000000
   H     75.88000000    28.34000000    58.85000000
   N     77.14000000    29.86000000    63.07000000
   C     77.88000000    31.04000000    62.68000000
   C     76.93000000    32.18000000    62.97000000
   O     76.22000000    32.19000000    63.98000000
   C     79.15000000    31.16000000    63.53000000
   H     76.96000000    29.73000000    64.06000000
   H     78.21000000    31.01000000    61.64000000
   H     78.99000000    31.17000000    64.60000000
   H     79.84000000    30.33000000    63.44000000
   H     79.63000000    32.11000000    63.29000000
   N     76.79000000    33.25000000    62.19000000
   C     77.30000000    33.37000000    60.83000000
   C     76.30000000    33.99000000    59.86000000
   O     76.50000000    34.04000000    58.65000000
   C     78.67000000    34.02000000    60.75000000
   C     78.65000000    35.42000000    61.36000000
   C     78.54000000    35.56000000    62.87000000
   O     79.58000000    35.39000000    63.54000000
   O     77.45000000    35.96000000    63.34000000
   H     76.40000000    34.09000000    62.59000000
   H     77.50000000    32.37000000    60.44000000
   H     79.03000000    34.08000000    59.72000000
   H     79.37000000    33.40000000    61.31000000
   H     77.83000000    36.01000000    60.96000000
   H     79.63000000    35.86000000    61.14000000
   N     75.17000000    34.47000000    60.38000000
   C     74.16000000    35.25000000    59.68000000
   H     73.29500000    35.38800000    60.32800000
   H     74.57200000    36.22300000    59.41300000
   H     73.85500000    34.72300000    58.77600000
   H     75.02000000    34.25000000    61.35000000
  Ca     84.14000000    26.62000000    54.17000000
   O     82.82000000    26.38000000    56.61000000
   H     82.17000000    27.07000000    56.77000000
   H     83.31000000    26.32000000    57.42000000
   O     82.31000000    24.60000000    54.05000000
   H     81.91000000    24.14000000    53.31000000
   H     81.92000000    24.19000000    54.82000000
   O     85.31000000    28.13000000    56.09000000
   H     85.81000000    27.83000000    56.85000000
   H     85.67000000    29.00000000    55.88000000

Ca 1.00



