%chk=loop4.apoCaM-CA-Ng.Init31.run21.water4.chk
%nprocshared=20
%mem=10GB
%nosave
#b3lyp/svp scf=(tight,noincore,xqc) Test 
#IOP(5/87=12) Density=Current Pop=(MK,readradii) iop(6/33=2) iop(6/42=6)

loop4.apoCaM-CA-Ng.Init31.run21.water4 

   -3  1 
   C     93.10000000    43.89000000    17.25000000
   C     94.28000000    43.11000000    17.81000000
   O     95.26000000    42.83000000    17.12000000
   H     92.27800000    43.86800000    17.96600000
   H     93.39800000    44.92300000    17.07100000
   H     92.77700000    43.43700000    16.31300000
   N     94.28000000    42.64000000    19.06000000
   C     93.35000000    42.78000000    20.16000000
   C     93.79000000    43.57000000    21.39000000
   O     92.95000000    43.72000000    22.28000000
   C     92.81000000    41.40000000    20.53000000
   C     92.20000000    40.41000000    19.55000000
   O     91.40000000    39.53000000    19.92000000
   O     92.57000000    40.40000000    18.36000000
   H     95.12000000    42.19000000    19.39000000
   H     92.55000000    43.33000000    19.67000000
   H     91.98000000    41.57000000    21.22000000
   H     93.55000000    40.81000000    21.08000000
   N     94.95000000    44.22000000    21.35000000
   C     95.47000000    45.22000000    22.27000000
   C     96.54000000    44.67000000    23.19000000
   O     96.66000000    45.14000000    24.32000000
   C     95.86000000    46.43000000    21.41000000
   C     96.21000000    47.58000000    22.35000000
   C     97.00000000    46.03000000    20.48000000
   C     96.19000000    48.92000000    21.64000000
   H     95.54000000    44.11000000    20.54000000
   H     94.57000000    45.53000000    22.80000000
   H     94.94000000    46.62000000    20.85000000
   H     97.19000000    47.38000000    22.77000000
   H     95.53000000    47.64000000    23.21000000
   H     97.20000000    46.78000000    19.73000000
   H     97.89000000    45.99000000    21.10000000
   H     96.77000000    45.08000000    20.00000000
   H     96.71000000    48.96000000    20.68000000
   H     95.14000000    49.14000000    21.42000000
   H     96.52000000    49.67000000    22.36000000
   N     97.37000000    43.73000000    22.73000000
   C     98.44000000    43.21000000    23.56000000
   C     98.85000000    41.84000000    23.05000000
   O     98.55000000    41.46000000    21.92000000
   C     99.55000000    44.25000000    23.62000000
   C    100.54000000    43.96000000    24.74000000
   O    100.25000000    43.12000000    25.62000000
   O    101.53000000    44.71000000    24.87000000
   H     97.07000000    43.37000000    21.83000000
   H     97.96000000    43.12000000    24.54000000
   H     99.17000000    45.26000000    23.73000000
   H    100.09000000    44.18000000    22.67000000
   N     99.42000000    40.97000000    23.89000000
   C     99.77000000    39.59000000    23.60000000
   C    101.16000000    39.36000000    23.04000000
   O    102.02000000    40.24000000    23.08000000
   H     99.79000000    41.31000000    24.77000000
   H     99.00000000    39.22000000    22.92000000
   H     99.69000000    39.05000000    24.54000000
   N    101.37000000    38.13000000    22.56000000
   C    102.65000000    37.83000000    21.96000000
   C    103.59000000    37.24000000    23.00000000
   O    103.14000000    36.62000000    23.96000000
   C    102.54000000    36.81000000    20.83000000
   C    101.90000000    35.48000000    21.20000000
   O    102.67000000    34.51000000    21.13000000
   O    100.70000000    35.46000000    21.55000000
   H    100.63000000    37.45000000    22.67000000
   H    103.05000000    38.72000000    21.47000000
   H    103.54000000    36.69000000    20.39000000
   H    101.92000000    37.19000000    20.02000000
   N    104.86000000    37.64000000    23.01000000
   C    105.65000000    38.23000000    21.95000000
   C    106.16000000    39.65000000    22.15000000
   O    106.34000000    40.07000000    23.29000000
   H    105.32000000    37.44000000    23.88000000
   H    105.12000000    38.17000000    20.99000000
   H    106.49000000    37.57000000    21.75000000
   N    106.72000000    40.30000000    21.12000000
   C    106.74000000    40.18000000    19.68000000
   C    105.34000000    40.28000000    19.07000000
   O    104.33000000    40.25000000    19.77000000
   C    107.49000000    38.91000000    19.32000000
   C    108.05000000    38.93000000    17.90000000
   C    108.85000000    37.74000000    17.39000000
   N    109.37000000    37.88000000    16.16000000
   O    108.93000000    36.68000000    18.01000000
   H    107.01000000    41.19000000    21.50000000
   H    107.34000000    40.99000000    19.27000000
   H    106.91000000    37.99000000    19.46000000
   H    108.27000000    38.76000000    20.07000000
   H    108.73000000    39.79000000    17.81000000
   H    107.16000000    38.98000000    17.28000000
   H    109.40000000    38.69000000    15.57000000
   H    109.74000000    37.00000000    15.83000000
   N    105.23000000    40.48000000    17.76000000
   C    103.95000000    40.47000000    17.08000000
   C    103.82000000    41.59000000    16.06000000
   O    104.82000000    42.02000000    15.48000000
   C    103.55000000    39.14000000    16.45000000
   C    103.29000000    38.08000000    17.52000000
   C    104.63000000    38.61000000    15.51000000
   H    106.11000000    40.49000000    17.26000000
   H    103.17000000    40.70000000    17.81000000
   H    102.73000000    39.36000000    15.77000000
   H    102.90000000    37.22000000    16.98000000
   H    104.24000000    37.89000000    18.03000000
   H    102.53000000    38.40000000    18.22000000
   H    105.48000000    38.22000000    16.07000000
   H    104.25000000    38.02000000    14.67000000
   H    105.14000000    39.42000000    14.98000000
   N    102.59000000    42.07000000    15.88000000
   C    102.30000000    43.35000000    15.27000000
   C    102.17000000    43.17000000    13.76000000
   O    102.25000000    42.05000000    13.27000000
   C    101.12000000    44.04000000    15.95000000
   C    101.24000000    44.36000000    17.43000000
   N    100.45000000    43.78000000    18.34000000
   O    102.13000000    45.12000000    17.80000000
   H    101.87000000    41.45000000    16.22000000
   H    103.17000000    44.00000000    15.36000000
   H    100.26000000    43.41000000    15.76000000
   H    101.00000000    44.98000000    15.42000000
   H     99.67000000    43.22000000    18.02000000
   H    100.71000000    43.77000000    19.31000000
   N    102.04000000    44.27000000    13.01000000
   C    101.48000000    44.42000000    11.69000000
   C    100.26000000    43.51000000    11.59000000
   O     99.58000000    43.40000000    12.61000000
   C    102.60000000    44.28000000    10.66000000
   C    102.27000000    44.81000000     9.28000000
   C    102.06000000    43.95000000     8.19000000
   C    102.04000000    46.18000000     9.10000000
   C    101.58000000    44.42000000     6.96000000
   C    101.65000000    46.67000000     7.85000000
   C    101.58000000    45.81000000     6.73000000
   O    101.20000000    46.29000000     5.51000000
   H    102.41000000    45.09000000    13.48000000
   H    101.09000000    45.44000000    11.63000000
   H    102.86000000    43.23000000    10.69000000
   H    103.42000000    44.86000000    11.08000000
   H    102.24000000    42.89000000     8.30000000
   H    101.98000000    46.84000000     9.95000000
   H    101.35000000    43.77000000     6.13000000
   H    101.45000000    47.72000000     7.73000000
   H    101.17000000    47.24000000     5.63000000
   N     99.89000000    42.95000000    10.44000000
   C     98.76000000    42.06000000    10.29000000
   C     97.46000000    42.67000000    10.79000000
   O     96.87000000    43.62000000    10.28000000
   C     98.77000000    41.42000000     8.91000000
   C     98.50000000    42.38000000     7.75000000
   C     98.23000000    41.61000000     6.46000000
   O     99.16000000    41.17000000     5.74000000
   O     97.06000000    41.28000000     6.20000000
   H    100.49000000    43.07000000     9.64000000
   H     99.04000000    41.20000000    10.89000000
   H     97.97000000    40.68000000     8.85000000
   H     99.71000000    40.91000000     8.72000000
   H     99.41000000    42.97000000     7.61000000
   H     97.71000000    43.07000000     8.03000000
   N     96.87000000    42.00000000    11.79000000
   C     95.62000000    42.37000000    12.41000000
   C     95.58000000    43.76000000    13.02000000
   O     94.62000000    44.51000000    12.86000000
   C     95.21000000    41.40000000    13.52000000
   C     94.83000000    40.00000000    13.06000000
   C     95.08000000    39.00000000    14.18000000
   O     94.39000000    38.97000000    15.22000000
   O     96.13000000    38.33000000    14.10000000
   H     97.33000000    41.17000000    12.12000000
   H     94.83000000    42.42000000    11.66000000
   H     94.32000000    41.85000000    13.96000000
   H     95.99000000    41.39000000    14.29000000
   H     95.42000000    39.70000000    12.19000000
   H     93.80000000    40.01000000    12.71000000
   N     96.65000000    44.20000000    13.68000000
   C     96.68000000    45.55000000    14.20000000
   H     97.00100000    46.23400000    13.41500000
   H     95.68400000    45.83100000    14.54100000
   H     97.37900000    45.60300000    15.03500000
   H     97.46000000    43.59000000    13.65000000
  Ca     92.42000000    38.35000000    16.71000000
   O     90.79000000    36.42000000    17.68000000
   H     90.38000000    36.32000000    18.54000000
   H     90.16000000    36.04000000    17.07000000
   O     90.99000000    37.06000000    14.86000000
   H     91.24000000    36.63000000    14.04000000
   H     90.32000000    36.49000000    15.23000000
   O     94.04000000    37.75000000    18.73000000
   H     94.39000000    38.54000000    19.14000000
   H     94.28000000    37.05000000    19.33000000
   O     93.68000000    36.04000000    16.17000000
   H     93.59000000    35.09000000    16.23000000
   H     94.61000000    36.18000000    15.96000000

Ca 1.00



