%chk=loop3.apoCaM-CA-Ng.Init31.run79.water5.chk
%nprocshared=20
%mem=10GB
%nosave
#b3lyp/svp scf=(tight,noincore,xqc) Test 
#IOP(5/87=12) Density=Current Pop=(MK,readradii) iop(6/33=2) iop(6/42=6)

loop3.apoCaM-CA-Ng.Init31.run79.water5 

   0  1 
   C     79.43000000    54.68000000     8.81000000
   C     78.53000000    53.46000000     9.00000000
   O     78.19000000    53.06000000    10.11000000
   H     80.37000000    54.37000000     8.35400000
   H     78.93300000    55.40100000     8.16100000
   H     79.63000000    55.13900000     9.77800000
   N     78.14000000    52.82000000     7.90000000
   C     77.34000000    51.61000000     7.90000000
   C     78.18000000    50.35000000     7.76000000
   O     79.27000000    50.28000000     7.20000000
   C     76.30000000    51.49000000     6.79000000
   C     76.96000000    51.68000000     5.43000000
   O     77.02000000    50.63000000     4.75000000
   O     77.42000000    52.77000000     5.03000000
   H     78.42000000    53.17000000     6.99000000
   H     76.81000000    51.66000000     8.85000000
   H     75.60000000    52.31000000     6.95000000
   H     75.72000000    50.58000000     6.92000000
   N     77.62000000    49.22000000     8.19000000
   C     78.28000000    47.95000000     7.96000000
   C     79.55000000    47.82000000     8.79000000
   O     80.61000000    47.39000000     8.32000000
   C     77.39000000    46.74000000     8.23000000
   C     78.10000000    45.42000000     7.96000000
   C     77.18000000    44.30000000     8.43000000
   C     77.68000000    42.88000000     8.17000000
   N     78.90000000    42.58000000     8.94000000
   H     76.72000000    49.22000000     8.65000000
   H     78.52000000    47.93000000     6.90000000
   H     76.47000000    46.85000000     7.65000000
   H     77.14000000    46.78000000     9.29000000
   H     79.06000000    45.35000000     8.46000000
   H     78.17000000    45.32000000     6.87000000
   H     76.22000000    44.40000000     7.93000000
   H     76.94000000    44.47000000     9.48000000
   H     77.96000000    42.73000000     7.12000000
   H     76.92000000    42.12000000     8.37000000
   H     79.64000000    43.21000000     8.67000000
   H     78.78000000    42.75000000     9.93000000
   H     79.27000000    41.65000000     8.84000000
   N     79.46000000    48.07000000    10.09000000
   C     80.55000000    48.10000000    11.04000000
   C     80.88000000    46.79000000    11.75000000
   O     80.61000000    46.61000000    12.94000000
   C     80.24000000    49.32000000    11.91000000
   C     78.85000000    49.38000000    12.52000000
   O     78.38000000    50.41000000    13.04000000
   O     78.19000000    48.34000000    12.73000000
   H     78.54000000    48.39000000    10.37000000
   H     81.51000000    48.30000000    10.56000000
   H     80.39000000    50.22000000    11.31000000
   H     80.93000000    49.45000000    12.74000000
   N     81.33000000    45.81000000    10.96000000
   C     81.60000000    44.45000000    11.38000000
   C     80.31000000    43.65000000    11.44000000
   O     79.23000000    44.15000000    11.13000000
   H     81.26000000    46.02000000     9.97000000
   H     82.23000000    44.33000000    12.26000000
   H     82.11000000    43.98000000    10.54000000
   N     80.32000000    42.39000000    11.86000000
   C     81.46000000    41.58000000    12.26000000
   C     81.49000000    41.44000000    13.77000000
   O     80.47000000    41.42000000    14.47000000
   C     81.48000000    40.23000000    11.56000000
   C     81.62000000    40.40000000    10.05000000
   N     82.84000000    40.80000000     9.66000000
   O     80.68000000    40.32000000     9.27000000
   H     79.43000000    41.90000000    11.82000000
   H     82.43000000    41.97000000    11.97000000
   H     80.49000000    39.79000000    11.67000000
   H     82.21000000    39.54000000    11.99000000
   H     83.62000000    40.88000000    10.29000000
   H     82.98000000    40.85000000     8.66000000
   N     82.63000000    41.23000000    14.43000000
   C     83.95000000    41.02000000    13.86000000
   C     84.68000000    42.35000000    13.86000000
   O     84.23000000    43.29000000    13.21000000
   H     82.55000000    41.17000000    15.43000000
   H     83.89000000    40.67000000    12.83000000
   H     84.51000000    40.27000000    14.43000000
   N     85.66000000    42.49000000    14.77000000
   C     86.20000000    43.80000000    15.09000000
   C     87.72000000    43.89000000    15.19000000
   O     88.28000000    43.40000000    16.17000000
   C     85.53000000    44.28000000    16.37000000
   C     84.03000000    44.08000000    16.42000000
   C     83.22000000    45.05000000    15.82000000
   C     83.52000000    42.94000000    17.06000000
   C     81.84000000    44.90000000    15.93000000
   C     82.14000000    42.80000000    17.19000000
   C     81.31000000    43.76000000    16.56000000
   O     79.97000000    43.53000000    16.71000000
   H     86.08000000    41.66000000    15.15000000
   H     85.88000000    44.48000000    14.30000000
   H     85.71000000    45.35000000    16.37000000
   H     85.91000000    43.77000000    17.25000000
   H     83.69000000    45.83000000    15.24000000
   H     84.17000000    42.22000000    17.55000000
   H     81.21000000    45.75000000    15.67000000
   H     81.62000000    41.93000000    17.56000000
   H     79.89000000    42.65000000    17.07000000
   N     88.40000000    44.24000000    14.10000000
   C     89.84000000    44.13000000    13.96000000
   C     90.59000000    45.33000000    13.39000000
   O     91.78000000    45.38000000    13.68000000
   C     90.10000000    42.78000000    13.29000000
   C     89.82000000    41.57000000    14.17000000
   C     89.35000000    42.75000000    11.96000000
   C     90.22000000    40.28000000    13.46000000
   H     87.90000000    44.59000000    13.31000000
   H     90.23000000    44.12000000    14.98000000
   H     91.18000000    42.75000000    13.12000000
   H     88.74000000    41.49000000    14.34000000
   H     90.42000000    41.59000000    15.08000000
   H     88.28000000    42.55000000    12.05000000
   H     89.63000000    43.55000000    11.28000000
   H     89.67000000    41.93000000    11.32000000
   H     89.52000000    39.79000000    12.79000000
   H     91.22000000    40.43000000    13.06000000
   H     90.43000000    39.60000000    14.28000000
   N     90.05000000    46.27000000    12.61000000
   C     90.82000000    47.30000000    11.94000000
   C     90.24000000    47.85000000    10.65000000
   O     90.99000000    48.43000000     9.87000000
   C     91.01000000    48.45000000    12.92000000
   O     89.78000000    49.12000000    13.08000000
   H     89.09000000    46.10000000    12.33000000
   H     91.82000000    46.93000000    11.71000000
   H     91.65000000    49.17000000    12.40000000
   H     91.40000000    48.10000000    13.88000000
   H     89.07000000    48.51000000    13.31000000
   N     88.97000000    47.60000000    10.31000000
   C     88.25000000    48.16000000     9.19000000
   C     87.49000000    49.42000000     9.58000000
   O     86.41000000    49.57000000     9.01000000
   C     87.46000000    47.08000000     8.46000000
   H     88.44000000    47.11000000    11.02000000
   H     88.88000000    48.45000000     8.34000000
   H     87.99000000    46.14000000     8.32000000
   H     86.59000000    46.76000000     9.03000000
   H     87.07000000    47.59000000     7.59000000
   N     88.03000000    50.30000000    10.42000000
   C     87.35000000    51.48000000    10.93000000
   C     86.08000000    51.13000000    11.69000000
   O     85.37000000    52.06000000    12.06000000
   C     87.35000000    52.55000000     9.84000000
   H     88.93000000    50.09000000    10.82000000
   H     88.06000000    51.83000000    11.67000000
   H     88.39000000    52.57000000     9.50000000
   H     86.67000000    52.20000000     9.06000000
   H     87.07000000    53.55000000    10.16000000
   N     85.82000000    49.86000000    12.05000000
   C     84.65000000    49.49000000    12.82000000
   C     84.86000000    49.85000000    14.28000000
   O     83.98000000    50.46000000    14.89000000
   C     84.37000000    48.00000000    12.61000000
   C     85.29000000    46.96000000    13.25000000
   C     86.73000000    46.88000000    12.77000000
   O     87.52000000    47.84000000    12.90000000
   O     87.10000000    45.80000000    12.25000000
   H     86.54000000    49.16000000    11.97000000
   H     83.79000000    50.01000000    12.42000000
   H     84.15000000    47.83000000    11.56000000
   H     83.37000000    47.89000000    13.03000000
   H     84.83000000    45.99000000    13.06000000
   H     85.29000000    47.15000000    14.32000000
   N     86.08000000    49.68000000    14.80000000
   C     86.47000000    50.05000000    16.14000000
   H     87.31900000    50.73200000    16.09500000
   H     85.63500000    50.54200000    16.63900000
   H     86.75100000    49.15600000    16.69700000
   H     86.75000000    49.36000000    14.12000000
  Ca     76.46000000    49.30000000    14.46000000
   O     75.11000000    49.68000000    12.19000000
   H     74.88000000    49.76000000    11.26000000
   H     74.50000000    50.26000000    12.64000000
   O     75.61000000    48.64000000    16.75000000
   H     74.83000000    48.55000000    17.29000000
   H     76.34000000    48.57000000    17.37000000
   O     74.54000000    47.34000000    14.13000000
   H     73.77000000    47.12000000    14.66000000
   H     74.22000000    47.33000000    13.23000000
   O     78.12000000    50.24000000    16.16000000
   H     78.50000000    51.10000000    16.35000000
   H     78.26000000    49.73000000    16.96000000
   O     77.49000000    46.91000000    15.15000000
   H     76.71000000    46.35000000    15.16000000
   H     78.07000000    46.50000000    14.51000000

Ca 1.00



