%chk=loop1.holoCaM-CaMKII.run89.water2.chk
%nprocshared=20
%mem=10GB
%nosave
#b3lyp/svp scf=(tight,noincore,xqc) Test 
#IOP(5/87=12) Density=Current Pop=(MK,readradii) iop(6/33=2) iop(6/42=6)

loop1.holoCaM-CaMKII.run89.water2 

   0  1 
   C     62.36000000    24.75000000    80.83000000
   C     63.13000000    24.28000000    79.61000000
   O     62.61000000    24.41000000    78.50000000
   H     61.36500000    24.30500000    80.82500000
   H     62.88900000    24.44600000    81.73300000
   H     62.27100000    25.83600000    80.80800000
   N     64.38000000    23.82000000    79.72000000
   C     65.17000000    23.31000000    78.62000000
   C     64.81000000    21.86000000    78.33000000
   O     65.53000000    20.97000000    78.80000000
   C     66.65000000    23.50000000    78.90000000
   C     67.55000000    23.03000000    77.77000000
   O     68.77000000    22.93000000    78.03000000
   O     67.09000000    22.73000000    76.65000000
   H     64.78000000    23.79000000    80.65000000
   H     65.00000000    23.89000000    77.71000000
   H     66.93000000    23.04000000    79.85000000
   H     66.81000000    24.58000000    78.94000000
   N     63.74000000    21.64000000    77.57000000
   C     63.07000000    20.37000000    77.37000000
   C     63.82000000    19.59000000    76.30000000
   O     63.37000000    18.53000000    75.88000000
   C     61.64000000    20.63000000    76.91000000
   C     60.69000000    21.02000000    78.04000000
   C     59.40000000    21.47000000    77.35000000
   C     58.27000000    21.70000000    78.34000000
   N     58.49000000    22.78000000    79.32000000
   H     63.19000000    22.44000000    77.26000000
   H     63.08000000    19.72000000    78.24000000
   H     61.31000000    19.73000000    76.39000000
   H     61.50000000    21.37000000    76.13000000
   H     61.02000000    21.91000000    78.57000000
   H     60.67000000    20.16000000    78.71000000
   H     59.07000000    20.71000000    76.64000000
   H     59.61000000    22.42000000    76.84000000
   H     58.06000000    20.78000000    78.89000000
   H     57.33000000    21.80000000    77.80000000
   H     58.66000000    23.71000000    78.95000000
   H     57.63000000    22.95000000    79.82000000
   H     59.17000000    22.60000000    80.04000000
   N     64.98000000    20.05000000    75.81000000
   C     65.85000000    19.40000000    74.85000000
   C     67.30000000    19.14000000    75.24000000
   O     68.05000000    18.47000000    74.53000000
   C     65.96000000    20.13000000    73.52000000
   C     66.36000000    21.59000000    73.71000000
   O     65.50000000    22.47000000    73.93000000
   O     67.54000000    21.96000000    73.52000000
   H     65.38000000    20.82000000    76.32000000
   H     65.39000000    18.43000000    74.63000000
   H     64.95000000    20.22000000    73.13000000
   H     66.52000000    19.63000000    72.73000000
   N     67.60000000    19.70000000    76.41000000
   C     68.88000000    19.51000000    77.06000000
   C     70.10000000    20.25000000    76.54000000
   O     71.17000000    19.99000000    77.07000000
   H     66.96000000    20.34000000    76.86000000
   H     69.18000000    18.47000000    76.97000000
   H     68.82000000    19.77000000    78.12000000
   N     70.04000000    21.29000000    75.71000000
   C     71.23000000    21.94000000    75.19000000
   C     72.03000000    22.77000000    76.19000000
   O     73.22000000    23.02000000    76.01000000
   C     71.00000000    22.80000000    73.95000000
   C     69.96000000    23.89000000    74.15000000
   O     69.60000000    24.32000000    75.26000000
   O     69.34000000    24.20000000    73.11000000
   H     69.16000000    21.69000000    75.41000000
   H     71.95000000    21.19000000    74.86000000
   H     70.72000000    22.15000000    73.12000000
   H     71.96000000    23.21000000    73.64000000
   N     71.50000000    23.12000000    77.37000000
   C     72.05000000    24.06000000    78.32000000
   C     71.61000000    25.50000000    78.10000000
   O     72.41000000    26.40000000    78.38000000
   H     70.58000000    22.79000000    77.63000000
   H     73.14000000    24.07000000    78.29000000
   H     71.78000000    23.73000000    79.32000000
   N     70.43000000    25.75000000    77.53000000
   C     69.96000000    27.09000000    77.23000000
   C     68.45000000    27.21000000    77.08000000
   O     67.76000000    26.31000000    76.61000000
   C     70.69000000    27.80000000    76.09000000
   C     71.89000000    28.67000000    76.43000000
   O     71.09000000    26.76000000    75.22000000
   H     69.95000000    24.96000000    77.14000000
   H     70.17000000    27.61000000    78.16000000
   H     69.95000000    28.33000000    75.48000000
   H     70.45000000    26.05000000    75.28000000
   H     71.88000000    28.81000000    77.51000000
   H     72.86000000    28.19000000    76.30000000
   H     71.88000000    29.65000000    75.93000000
   N     67.95000000    28.39000000    77.46000000
   C     66.54000000    28.68000000    77.56000000
   C     66.23000000    29.98000000    76.84000000
   O     66.94000000    30.97000000    76.98000000
   C     66.03000000    28.76000000    79.00000000
   C     66.19000000    27.40000000    79.68000000
   C     64.59000000    29.27000000    79.05000000
   C     66.14000000    27.46000000    81.20000000
   H     68.56000000    29.05000000    77.93000000
   H     65.86000000    27.93000000    77.14000000
   H     66.64000000    29.54000000    79.45000000
   H     67.16000000    26.96000000    79.45000000
   H     65.37000000    26.74000000    79.41000000
   H     63.91000000    28.56000000    78.59000000
   H     64.38000000    29.56000000    80.08000000
   H     64.58000000    30.25000000    78.58000000
   H     65.19000000    27.88000000    81.54000000
   H     66.26000000    26.43000000    81.55000000
   H     66.92000000    28.14000000    81.55000000
   N     65.16000000    29.91000000    76.04000000
   C     64.68000000    31.03000000    75.26000000
   C     63.33000000    31.51000000    75.77000000
   O     62.74000000    30.76000000    76.54000000
   C     64.64000000    30.73000000    73.76000000
   C     66.04000000    30.54000000    73.17000000
   O     63.96000000    29.56000000    73.36000000
   H     64.67000000    29.03000000    75.96000000
   H     65.47000000    31.78000000    75.31000000
   H     64.22000000    31.60000000    73.25000000
   H     64.60000000    28.89000000    73.61000000
   H     66.63000000    31.45000000    73.30000000
   H     66.38000000    29.65000000    73.71000000
   H     66.01000000    30.26000000    72.12000000
   N     62.83000000    32.62000000    75.22000000
   C     61.44000000    32.90000000    75.48000000
   C     60.40000000    31.85000000    75.11000000
   O     59.50000000    31.71000000    75.93000000
   C     60.99000000    34.25000000    74.92000000
   C     61.90000000    35.42000000    75.30000000
   O     60.94000000    34.25000000    73.51000000
   H     63.33000000    33.16000000    74.52000000
   H     61.43000000    33.04000000    76.56000000
   H     59.97000000    34.39000000    75.27000000
   H     60.09000000    34.57000000    73.19000000
   H     61.57000000    36.41000000    74.97000000
   H     61.97000000    35.48000000    76.38000000
   H     62.87000000    35.33000000    74.81000000
   N     60.54000000    31.18000000    73.96000000
   C     59.63000000    30.09000000    73.64000000
   C     59.66000000    28.93000000    74.63000000
   O     58.71000000    28.17000000    74.76000000
   C     59.96000000    29.65000000    72.22000000
   C     58.74000000    29.05000000    71.54000000
   C     58.89000000    28.82000000    70.04000000
   C     57.68000000    28.27000000    69.29000000
   N     57.38000000    26.92000000    69.79000000
   H     61.22000000    31.45000000    73.27000000
   H     58.63000000    30.51000000    73.69000000
   H     60.83000000    28.98000000    72.21000000
   H     60.25000000    30.43000000    71.51000000
   H     57.87000000    29.68000000    71.76000000
   H     58.50000000    28.14000000    72.10000000
   H     59.83000000    28.28000000    69.93000000
   H     59.16000000    29.77000000    69.58000000
   H     57.93000000    28.22000000    68.23000000
   H     56.81000000    28.91000000    69.28000000
   H     57.03000000    26.97000000    70.74000000
   H     56.74000000    26.33000000    69.27000000
   H     58.20000000    26.33000000    69.87000000
   N     60.77000000    28.79000000    75.36000000
   C     60.93000000    27.85000000    76.45000000
   C     60.36000000    28.41000000    77.75000000
   O     59.58000000    27.70000000    78.39000000
   C     62.37000000    27.35000000    76.51000000
   C     62.84000000    26.67000000    75.23000000
   C     64.34000000    26.46000000    75.17000000
   O     64.79000000    25.33000000    75.44000000
   O     65.02000000    27.42000000    74.75000000
   H     61.53000000    29.44000000    75.27000000
   H     60.35000000    26.95000000    76.25000000
   H     62.52000000    26.83000000    77.46000000
   H     63.03000000    28.22000000    76.48000000
   H     62.51000000    27.25000000    74.37000000
   H     62.37000000    25.69000000    75.14000000
   N     60.57000000    29.67000000    78.13000000
   C     59.89000000    30.34000000    79.23000000
   H     58.88900000    29.92300000    79.34600000
   H     60.45400000    30.19100000    80.15100000
   H     59.81600000    31.40600000    79.01700000
   H     61.39000000    30.11000000    77.75000000
  Ca     67.08000000    24.46000000    74.64000000
   O     67.34000000    26.99000000    73.75000000
   H     66.40000000    27.08000000    73.87000000
   H     67.54000000    27.52000000    72.98000000
   O     66.02000000    24.95000000    72.24000000
   H     66.43000000    25.36000000    71.48000000
   H     65.10000000    25.19000000    72.17000000

Ca 1.00



