%chk=loop1.apoCaM-CA-Ng.Init293.run55.water5.chk
%nprocshared=20
%mem=10GB
%nosave
#b3lyp/svp scf=(tight,noincore,xqc) Test 
#IOP(5/87=12) Density=Current Pop=(MK,readradii) iop(6/33=2) iop(6/42=6)

loop1.apoCaM-CA-Ng.Init293.run55.water5 

   0  1 
   C     70.56000000    81.15000000   104.78000000
   C     71.72000000    81.48000000   105.72000000
   O     72.16000000    82.62000000   105.89000000
   H     69.73800000    81.84300000   104.96100000
   H     70.89200000    81.24300000   103.74600000
   H     70.22200000    80.13000000   104.96300000
   N     72.33000000    80.45000000   106.30000000
   C     73.50000000    80.56000000   107.15000000
   C     74.86000000    80.47000000   106.49000000
   O     75.85000000    80.56000000   107.22000000
   C     73.42000000    79.49000000   108.24000000
   C     73.17000000    78.04000000   107.83000000
   O     71.99000000    77.78000000   107.52000000
   O     74.06000000    77.18000000   107.97000000
   H     71.87000000    79.55000000   106.19000000
   H     73.38000000    81.52000000   107.65000000
   H     72.67000000    79.80000000   108.96000000
   H     74.35000000    79.58000000   108.80000000
   N     74.94000000    80.30000000   105.17000000
   C     76.18000000    80.10000000   104.44000000
   C     76.66000000    81.43000000   103.89000000
   O     75.98000000    81.98000000   103.03000000
   C     76.03000000    79.02000000   103.37000000
   C     75.28000000    77.75000000   103.76000000
   C     75.99000000    76.97000000   104.86000000
   C     75.29000000    75.62000000   105.06000000
   N     74.02000000    75.69000000   105.80000000
   H     74.06000000    80.26000000   104.67000000
   H     76.97000000    79.82000000   105.14000000
   H     77.03000000    78.76000000   103.04000000
   H     75.49000000    79.38000000   102.49000000
   H     75.26000000    77.10000000   102.89000000
   H     74.31000000    77.92000000   104.22000000
   H     75.90000000    77.45000000   105.83000000
   H     77.05000000    76.87000000   104.63000000
   H     76.00000000    74.92000000   105.50000000
   H     75.22000000    75.17000000   104.07000000
   H     73.66000000    74.76000000   105.99000000
   H     74.25000000    75.95000000   106.74000000
   H     73.33000000    76.28000000   105.36000000
   N     77.80000000    82.01000000   104.28000000
   C     78.56000000    81.76000000   105.49000000
   C     79.22000000    83.08000000   105.85000000
   O     80.34000000    83.44000000   105.49000000
   C     79.56000000    80.63000000   105.35000000
   C     80.50000000    80.56000000   106.55000000
   O     81.64000000    80.09000000   106.36000000
   O     80.03000000    80.86000000   107.67000000
   H     78.13000000    82.76000000   103.69000000
   H     77.91000000    81.52000000   106.34000000
   H     80.21000000    80.85000000   104.50000000
   H     79.01000000    79.71000000   105.14000000
   N     78.61000000    84.00000000   106.60000000
   C     77.17000000    84.02000000   106.73000000
   C     76.72000000    85.22000000   107.56000000
   O     77.53000000    85.78000000   108.28000000
   H     79.15000000    84.82000000   106.83000000
   H     76.78000000    83.12000000   107.19000000
   H     76.71000000    84.21000000   105.76000000
   N     75.44000000    85.61000000   107.59000000
   C     74.28000000    84.85000000   107.17000000
   C     73.12000000    85.16000000   108.10000000
   O     73.19000000    86.05000000   108.95000000
   C     73.86000000    85.14000000   105.73000000
   C     73.91000000    86.63000000   105.39000000
   O     74.69000000    87.01000000   104.49000000
   O     73.17000000    87.42000000   106.02000000
   H     75.22000000    86.39000000   108.20000000
   H     74.39000000    83.76000000   107.17000000
   H     72.84000000    84.95000000   105.41000000
   H     74.54000000    84.62000000   105.06000000
   N     71.97000000    84.53000000   107.83000000
   C     70.75000000    84.82000000   108.54000000
   C     69.87000000    85.95000000   108.03000000
   O     68.70000000    85.97000000   108.40000000
   H     71.98000000    83.93000000   107.02000000
   H     70.88000000    84.97000000   109.61000000
   H     70.12000000    83.94000000   108.41000000
   N     70.31000000    86.85000000   107.14000000
   C     69.39000000    87.72000000   106.43000000
   C     69.38000000    87.22000000   104.99000000
   O     70.41000000    86.79000000   104.48000000
   C     70.01000000    89.11000000   106.56000000
   C     69.01000000    90.20000000   106.22000000
   O     71.12000000    89.26000000   105.70000000
   H     71.27000000    86.77000000   106.83000000
   H     68.39000000    87.69000000   106.85000000
   H     70.35000000    89.37000000   107.57000000
   H     71.81000000    88.60000000   105.82000000
   H     68.22000000    90.38000000   106.95000000
   H     69.62000000    91.10000000   106.20000000
   H     68.61000000    89.87000000   105.26000000
   N     68.19000000    87.09000000   104.39000000
   C     67.90000000    86.84000000   102.99000000
   C     67.40000000    88.16000000   102.42000000
   O     66.24000000    88.50000000   102.63000000
   C     67.11000000    85.56000000   102.73000000
   C     66.65000000    85.40000000   101.29000000
   C     65.83000000    85.52000000   103.57000000
   C     67.82000000    85.36000000   100.30000000
   H     67.39000000    87.38000000   104.93000000
   H     68.87000000    86.72000000   102.51000000
   H     67.64000000    84.66000000   103.03000000
   H     66.06000000    86.25000000   100.95000000
   H     66.11000000    84.47000000   101.17000000
   H     66.07000000    84.96000000   104.48000000
   H     65.53000000    86.52000000   103.86000000
   H     65.02000000    85.04000000   103.02000000
   H     68.46000000    86.24000000   100.37000000
   H     68.47000000    84.56000000   100.65000000
   H     67.51000000    85.15000000    99.28000000
   N     68.23000000    88.87000000   101.65000000
   C     67.90000000    90.17000000   101.11000000
   C     67.95000000    90.18000000    99.58000000
   O     67.36000000    91.03000000    98.92000000
   C     68.80000000    91.17000000   101.84000000
   C     68.51000000    92.61000000   101.44000000
   O     70.18000000    91.02000000   101.58000000
   H     69.21000000    88.64000000   101.70000000
   H     66.84000000    90.32000000   101.28000000
   H     68.66000000    91.05000000   102.91000000
   H     70.65000000    91.60000000   102.18000000
   H     68.75000000    92.73000000   100.39000000
   H     67.49000000    92.92000000   101.67000000
   H     69.05000000    93.31000000   102.08000000
   N     68.60000000    89.15000000    99.03000000
   C     68.81000000    88.99000000    97.61000000
   C     69.62000000    90.10000000    96.95000000
   O     69.92000000    91.18000000    97.44000000
   C     67.49000000    88.66000000    96.91000000
   C     66.56000000    87.75000000    97.70000000
   O     67.58000000    88.19000000    95.59000000
   H     69.00000000    88.48000000    99.66000000
   H     69.37000000    88.06000000    97.46000000
   H     66.95000000    89.61000000    96.86000000
   H     66.67000000    88.12000000    95.29000000
   H     67.16000000    86.84000000    97.82000000
   H     66.27000000    88.21000000    98.64000000
   H     65.64000000    87.64000000    97.14000000
   N     70.06000000    89.80000000    95.73000000
   C     70.77000000    90.70000000    94.84000000
   C     72.29000000    90.63000000    94.85000000
   O     72.84000000    91.71000000    94.67000000
   C     70.07000000    90.69000000    93.48000000
   C     70.54000000    91.70000000    92.43000000
   C     70.30000000    93.13000000    92.89000000
   C     68.90000000    93.37000000    93.45000000
   N     68.84000000    94.65000000    94.17000000
   H     69.83000000    88.87000000    95.42000000
   H     70.52000000    91.70000000    95.17000000
   H     69.00000000    90.68000000    93.67000000
   H     70.24000000    89.77000000    92.92000000
   H     70.01000000    91.60000000    91.49000000
   H     71.58000000    91.44000000    92.21000000
   H     70.37000000    93.89000000    92.11000000
   H     71.11000000    93.41000000    93.58000000
   H     68.76000000    92.59000000    94.20000000
   H     68.13000000    93.21000000    92.70000000
   H     69.11000000    95.44000000    93.60000000
   H     67.88000000    94.96000000    94.25000000
   H     69.35000000    94.66000000    95.04000000
   N     73.11000000    89.59000000    95.07000000
   C     72.89000000    88.20000000    95.40000000
   C     71.84000000    87.50000000    94.56000000
   O     70.94000000    86.86000000    95.11000000
   C     72.80000000    87.95000000    96.90000000
   C     74.05000000    88.37000000    97.67000000
   C     73.95000000    87.98000000    99.14000000
   O     74.68000000    87.02000000    99.47000000
   O     73.10000000    88.47000000    99.90000000
   H     74.09000000    89.81000000    95.06000000
   H     73.81000000    87.73000000    95.05000000
   H     72.63000000    86.88000000    97.00000000
   H     71.96000000    88.40000000    97.44000000
   H     73.97000000    89.45000000    97.55000000
   H     74.91000000    87.92000000    97.17000000
   N     71.98000000    87.48000000    93.23000000
   C     71.05000000    86.75000000    92.39000000
   H     70.16500000    87.36100000    92.21300000
   H     71.52600000    86.51600000    91.43800000
   H     70.75900000    85.82500000    92.88800000
   H     72.80000000    87.99000000    92.93000000
  Ca     74.31000000    87.65000000   102.13400000
   O     71.92000000    86.29000000   102.39400000
   H     71.34000000    86.60000000   101.69400000
   H     71.39000000    86.37000000   103.19400000
   O     75.32000000    90.06000000   102.98400000
   H     74.76000000    90.80000000   102.71400000
   H     76.22000000    90.39000000   102.86400000
   O     76.86000000    87.19000000   102.55400000
   H     77.35000000    87.09000000   103.37400000
   H     77.43000000    86.79000000   101.89400000
   O     74.73000000    84.90000000   101.88400000
   H     74.31000000    84.14000000   102.27400000
   H     74.82000000    84.68000000   100.96400000
   O     72.34000000    89.27000000   102.98400000
   H     71.75000000    89.79000000   102.43400000
   H     71.95000000    89.30000000   103.85400000

Ca 1.00



