%chk=loop1.holoCaM-CaMKII.run80.water2.chk
%nprocshared=20
%mem=10GB
%nosave
#b3lyp/svp scf=(tight,noincore,xqc) Test 
#IOP(5/87=12) Density=Current Pop=(MK,readradii) iop(6/33=2) iop(6/42=6)

loop1.holoCaM-CaMKII.run80.water2 

   0  1 
   C     39.25000000    58.87000000    84.51500000
   C     39.79000000    59.96000000    83.58500000
   O     40.44000000    59.67000000    82.58500000
   H     38.24700000    58.58500000    84.19600000
   H     39.90500000    57.99900000    84.47400000
   H     39.21200000    59.24900000    85.53600000
   N     39.56000000    61.22000000    83.95500000
   C     40.09000000    62.41000000    83.32500000
   C     41.57000000    62.48000000    83.67500000
   O     42.05000000    62.34000000    84.79500000
   C     39.32000000    63.61000000    83.85500000
   C     39.74000000    64.94000000    83.24500000
   O     39.37000000    65.99000000    83.82500000
   O     40.58000000    64.92000000    82.32500000
   H     39.21000000    61.46000000    84.87500000
   H     39.97000000    62.34000000    82.24500000
   H     39.44000000    63.59000000    84.93500000
   H     38.26000000    63.43000000    83.67500000
   N     42.39000000    62.67000000    82.63500000
   C     43.84000000    62.75000000    82.61500000
   C     44.45000000    64.13000000    82.46500000
   O     45.65000000    64.23000000    82.71500000
   C     44.44000000    61.76000000    81.62500000
   C     44.11000000    60.30000000    81.90500000
   C     44.93000000    59.22000000    81.20500000
   C     46.33000000    59.15000000    81.81500000
   N     47.20000000    58.18000000    81.15500000
   H     41.90000000    62.57000000    81.76500000
   H     44.18000000    62.52000000    83.62500000
   H     45.53000000    61.84000000    81.69500000
   H     44.10000000    62.00000000    80.61500000
   H     43.06000000    60.17000000    81.63500000
   H     44.19000000    60.21000000    82.99500000
   H     44.94000000    59.42000000    80.13500000
   H     44.50000000    58.21000000    81.25500000
   H     46.17000000    58.81000000    82.83500000
   H     46.73000000    60.17000000    81.89500000
   H     48.05000000    58.10000000    81.70500000
   H     46.82000000    57.24000000    81.11500000
   H     47.48000000    58.43000000    80.21500000
   N     43.63000000    65.11000000    82.06500000
   C     44.08000000    66.45000000    81.73500000
   C     43.69000000    67.52000000    82.74500000
   O     44.09000000    68.68000000    82.67500000
   C     43.54000000    66.96000000    80.40500000
   C     43.52000000    65.92000000    79.29500000
   O     42.47000000    65.27000000    79.14500000
   O     44.52000000    65.79000000    78.55500000
   H     42.69000000    64.80000000    81.87500000
   H     45.17000000    66.46000000    81.74500000
   H     44.15000000    67.80000000    80.09500000
   H     42.57000000    67.43000000    80.55500000
   N     42.81000000    67.16000000    83.67500000
   C     42.19000000    68.06000000    84.63500000
   C     41.27000000    69.07000000    83.95500000
   O     41.53000000    70.23000000    84.27500000
   H     42.45000000    66.22000000    83.70500000
   H     42.90000000    68.56000000    85.29500000
   H     41.51000000    67.41000000    85.17500000
   N     40.36000000    68.68000000    83.07500000
   C     39.56000000    69.54000000    82.22500000
   C     38.07000000    69.54000000    82.55500000
   O     37.21000000    70.06000000    81.84500000
   C     40.00000000    69.26000000    80.79500000
   C     39.63000000    67.92000000    80.17500000
   O     38.78000000    67.23000000    80.77500000
   O     40.30000000    67.41000000    79.24500000
   H     40.27000000    67.69000000    82.86500000
   H     39.81000000    70.56000000    82.53500000
   H     41.07000000    69.47000000    80.84500000
   H     39.40000000    69.89000000    80.14500000
   N     37.76000000    68.70000000    83.54500000
   C     36.43000000    68.50000000    84.06500000
   C     35.53000000    67.71000000    83.12500000
   O     34.32000000    67.83000000    83.25500000
   H     38.53000000    68.09000000    83.78500000
   H     35.88000000    69.43000000    84.26500000
   H     36.46000000    68.02000000    85.04500000
   N     36.10000000    66.91000000    82.21500000
   C     35.39000000    66.10000000    81.24500000
   C     36.04000000    64.75000000    81.01500000
   O     37.26000000    64.66000000    81.17500000
   C     35.12000000    66.80000000    79.91500000
   C     34.09000000    67.92000000    79.96500000
   O     36.33000000    67.24000000    79.34500000
   H     37.10000000    66.86000000    82.09500000
   H     34.43000000    65.92000000    81.73500000
   H     34.74000000    65.94000000    79.37500000
   H     36.90000000    67.52000000    80.05500000
   H     33.08000000    67.50000000    79.99500000
   H     34.25000000    68.63000000    80.77500000
   H     34.22000000    68.43000000    79.00500000
   N     35.25000000    63.75000000    80.62500000
   C     35.66000000    62.40000000    80.31500000
   C     35.21000000    62.05000000    78.89500000
   O     34.03000000    62.03000000    78.54500000
   C     35.04000000    61.41000000    81.29500000
   C     35.56000000    61.60000000    82.72500000
   C     35.23000000    59.93000000    80.98500000
   C     34.59000000    61.21000000    83.83500000
   H     34.26000000    63.96000000    80.66500000
   H     36.74000000    62.29000000    80.34500000
   H     33.96000000    61.56000000    81.32500000
   H     35.86000000    62.64000000    82.85500000
   H     36.48000000    61.02000000    82.77500000
   H     34.97000000    59.68000000    79.95500000
   H     36.25000000    59.58000000    81.15500000
   H     34.57000000    59.27000000    81.54500000
   H     34.87000000    61.39000000    84.87500000
   H     33.68000000    61.76000000    83.64500000
   H     34.30000000    60.16000000    83.70500000
   N     36.15000000    61.71000000    78.01500000
   C     35.98000000    61.15000000    76.68500000
   C     35.63000000    59.67000000    76.71500000
   O     35.92000000    58.97000000    77.68500000
   C     37.20000000    61.38000000    75.80500000
   C     37.68000000    62.81000000    75.61500000
   O     38.27000000    60.67000000    76.39500000
   H     37.11000000    61.80000000    78.31500000
   H     35.13000000    61.65000000    76.22500000
   H     37.09000000    60.86000000    74.84500000
   H     39.06000000    61.04000000    75.99500000
   H     38.59000000    62.84000000    75.01500000
   H     36.90000000    63.38000000    75.10500000
   H     37.83000000    63.28000000    76.58500000
   N     35.19000000    59.14000000    75.56500000
   C     34.97000000    57.71000000    75.51500000
   C     36.20000000    56.80000000    75.56500000
   O     36.13000000    55.71000000    76.11500000
   C     34.12000000    57.41000000    74.28500000
   C     33.27000000    56.15000000    74.40500000
   O     33.19000000    58.44000000    74.03500000
   H     34.89000000    59.75000000    74.82500000
   H     34.33000000    57.44000000    76.35500000
   H     34.78000000    57.32000000    73.42500000
   H     33.31000000    58.45000000    73.08500000
   H     33.74000000    55.36000000    74.98500000
   H     32.37000000    56.39000000    74.97500000
   H     33.00000000    55.75000000    73.42500000
   N     37.38000000    57.34000000    75.25500000
   C     38.69000000    56.77000000    75.50500000
   C     39.05000000    56.88000000    76.98500000
   O     39.39000000    55.86000000    77.57500000
   C     39.69000000    57.46000000    74.58500000
   C     41.10000000    56.89000000    74.71500000
   C     42.02000000    57.53000000    75.74500000
   C     43.46000000    57.61000000    75.25500000
   N     44.35000000    57.92000000    76.38500000
   H     37.41000000    58.29000000    74.90500000
   H     38.73000000    55.72000000    75.20500000
   H     39.67000000    58.55000000    74.66500000
   H     39.29000000    57.24000000    73.60500000
   H     41.52000000    56.90000000    73.70500000
   H     41.20000000    55.83000000    74.96500000
   H     42.07000000    56.77000000    76.52500000
   H     41.65000000    58.51000000    76.03500000
   H     43.55000000    58.37000000    74.47500000
   H     43.78000000    56.66000000    74.82500000
   H     45.30000000    57.92000000    76.04500000
   H     44.32000000    58.88000000    76.71500000
   H     44.21000000    57.31000000    77.17500000
   N     38.88000000    58.05000000    77.60500000
   C     39.06000000    58.14000000    79.03500000
   C     38.21000000    57.15000000    79.82500000
   O     38.82000000    56.55000000    80.70500000
   C     38.78000000    59.56000000    79.51500000
   C     40.03000000    60.40000000    79.24500000
   C     39.93000000    61.88000000    79.55500000
   O     40.84000000    62.60000000    80.01500000
   O     38.83000000    62.45000000    79.35500000
   H     38.38000000    58.83000000    77.19500000
   H     40.11000000    57.89000000    79.23500000
   H     38.67000000    59.61000000    80.59500000
   H     37.80000000    59.85000000    79.12500000
   H     40.35000000    60.32000000    78.20500000
   H     40.90000000    59.95000000    79.71500000
   N     36.92000000    56.96000000    79.50500000
   C     36.04000000    55.94000000    80.03500000
   H     35.09500000    55.95900000    79.49300000
   H     36.50600000    54.96100000    79.91900000
   H     35.85600000    56.13200000    81.09200000
   H     36.56000000    57.75000000    79.00500000
  Ca     39.83000000    64.98000000    79.77000000
   O     38.14000000    65.63000000    77.93000000
   H     37.52000000    66.30000000    78.22000000
   H     38.12000000    65.68000000    76.97000000
   O     40.50000000    63.92000000    77.43000000
   H     40.21000000    64.04000000    76.53000000
   H     41.16000000    63.22000000    77.38000000

Ca 1.00



