%chk=loop4.apoCaM-CA-Ng.Init295.run76.water1.chk
%nprocshared=20
%mem=10GB
%nosave
#b3lyp/svp scf=(tight,noincore,xqc) Test 
#IOP(5/87=12) Density=Current Pop=(MK,readradii) iop(6/33=2) iop(6/42=6)

loop4.apoCaM-CA-Ng.Init295.run76.water1 

   -3  1 
   C    -10.72000000   -14.64000000    27.52000000
   C    -11.99000000   -15.28000000    26.98000000
   O    -12.85000000   -15.68000000    27.77000000
   H     -9.95000000   -14.65600000    26.74900000
   H    -10.92600000   -13.60800000    27.80600000
   H    -10.37400000   -15.19700000    28.39100000
   N    -12.13000000   -15.42000000    25.66000000
   C    -13.09000000   -16.15000000    24.86000000
   C    -14.53000000   -15.77000000    25.14000000
   O    -15.40000000   -16.64000000    25.18000000
   C    -12.82000000   -17.64000000    24.98000000
   C    -11.36000000   -18.07000000    24.87000000
   O    -10.64000000   -17.73000000    23.91000000
   O    -10.85000000   -18.89000000    25.67000000
   H    -11.37000000   -15.05000000    25.11000000
   H    -12.98000000   -15.89000000    23.80000000
   H    -13.37000000   -18.13000000    24.18000000
   H    -13.21000000   -17.91000000    25.96000000
   N    -14.83000000   -14.48000000    25.36000000
   C    -16.08000000   -13.85000000    25.75000000
   C    -16.88000000   -13.54000000    24.50000000
   O    -16.42000000   -12.85000000    23.59000000
   C    -15.98000000   -12.59000000    26.59000000
   C    -15.19000000   -12.89000000    27.86000000
   C    -17.34000000   -12.00000000    26.98000000
   C    -14.85000000   -11.80000000    28.87000000
   H    -14.03000000   -13.88000000    25.29000000
   H    -16.56000000   -14.64000000    26.33000000
   H    -15.48000000   -11.76000000    26.09000000
   H    -14.20000000   -13.27000000    27.64000000
   H    -15.83000000   -13.68000000    28.26000000
   H    -17.72000000   -11.39000000    26.16000000
   H    -18.09000000   -12.78000000    27.10000000
   H    -17.31000000   -11.30000000    27.81000000
   H    -15.44000000   -10.88000000    28.85000000
   H    -14.86000000   -12.17000000    29.90000000
   H    -13.82000000   -11.53000000    28.63000000
   N    -18.13000000   -13.98000000    24.33000000
   C    -18.94000000   -14.86000000    25.15000000
   C    -18.76000000   -16.33000000    24.77000000
   O    -18.53000000   -17.19000000    25.62000000
   C    -20.41000000   -14.45000000    25.19000000
   C    -20.57000000   -13.07000000    25.81000000
   O    -21.34000000   -13.06000000    26.80000000
   O    -20.15000000   -12.03000000    25.26000000
   H    -18.51000000   -13.80000000    23.40000000
   H    -18.65000000   -14.73000000    26.19000000
   H    -20.93000000   -15.21000000    25.76000000
   H    -20.74000000   -14.55000000    24.15000000
   N    -19.02000000   -16.53000000    23.48000000
   C    -19.00000000   -17.89000000    22.98000000
   C    -20.06000000   -18.76000000    23.65000000
   O    -21.17000000   -18.29000000    23.91000000
   H    -19.00000000   -15.74000000    22.86000000
   H    -18.04000000   -18.38000000    23.14000000
   H    -19.23000000   -17.95000000    21.92000000
   N    -19.74000000   -20.02000000    23.94000000
   C    -20.61000000   -20.99000000    24.57000000
   C    -20.31000000   -21.01000000    26.06000000
   O    -21.10000000   -21.59000000    26.80000000
   C    -20.30000000   -22.37000000    23.99000000
   C    -18.83000000   -22.74000000    23.95000000
   O    -18.22000000   -22.36000000    22.93000000
   O    -18.37000000   -23.25000000    24.99000000
   H    -18.82000000   -20.40000000    23.75000000
   H    -21.67000000   -20.75000000    24.44000000
   H    -20.76000000   -22.31000000    23.00000000
   H    -20.82000000   -23.15000000    24.55000000
   N    -19.21000000   -20.40000000    26.51000000
   C    -18.86000000   -20.34000000    27.91000000
   C    -18.36000000   -21.60000000    28.59000000
   O    -18.14000000   -21.50000000    29.80000000
   H    -18.47000000   -20.19000000    25.85000000
   H    -19.77000000   -20.11000000    28.46000000
   H    -18.12000000   -19.54000000    27.97000000
   N    -18.15000000   -22.74000000    27.93000000
   C    -17.98000000   -24.06000000    28.51000000
   C    -16.97000000   -24.22000000    29.64000000
   O    -17.19000000   -24.97000000    30.58000000
   C    -19.33000000   -24.62000000    28.92000000
   C    -20.21000000   -24.90000000    27.70000000
   C    -19.76000000   -26.10000000    26.87000000
   N    -18.90000000   -25.96000000    25.86000000
   O    -20.25000000   -27.21000000    27.09000000
   H    -18.36000000   -22.67000000    26.95000000
   H    -17.65000000   -24.68000000    27.67000000
   H    -19.83000000   -23.88000000    29.54000000
   H    -19.17000000   -25.52000000    29.52000000
   H    -20.20000000   -24.01000000    27.08000000
   H    -21.22000000   -25.04000000    28.07000000
   H    -18.54000000   -25.06000000    25.59000000
   H    -18.58000000   -26.81000000    25.42000000
   N    -15.92000000   -23.39000000    29.67000000
   C    -14.93000000   -23.14000000    30.71000000
   C    -13.65000000   -23.93000000    30.49000000
   O    -13.18000000   -24.00000000    29.36000000
   C    -14.78000000   -21.63000000    30.87000000
   C    -13.86000000   -21.27000000    32.04000000
   C    -14.32000000   -20.86000000    29.64000000
   H    -15.83000000   -22.87000000    28.81000000
   H    -15.44000000   -23.51000000    31.60000000
   H    -15.77000000   -21.21000000    31.05000000
   H    -13.99000000   -20.21000000    32.23000000
   H    -14.11000000   -21.94000000    32.87000000
   H    -12.82000000   -21.53000000    31.83000000
   H    -14.48000000   -19.80000000    29.84000000
   H    -13.26000000   -21.09000000    29.50000000
   H    -14.93000000   -21.01000000    28.75000000
   N    -13.03000000   -24.41000000    31.57000000
   C    -11.64000000   -24.82000000    31.68000000
   C    -10.78000000   -23.94000000    32.57000000
   O    -11.15000000   -23.32000000    33.57000000
   C    -11.58000000   -26.31000000    31.99000000
   C    -12.39000000   -27.24000000    31.11000000
   N    -11.83000000   -27.89000000    30.08000000
   O    -13.59000000   -27.47000000    31.28000000
   H    -13.44000000   -24.24000000    32.48000000
   H    -11.22000000   -24.66000000    30.69000000
   H    -12.02000000   -26.36000000    32.99000000
   H    -10.55000000   -26.62000000    32.17000000
   H    -10.93000000   -27.55000000    29.77000000
   H    -12.51000000   -28.41000000    29.55000000
   N     -9.47000000   -23.98000000    32.29000000
   C     -8.43000000   -23.26000000    33.00000000
   C     -7.35000000   -23.01000000    31.95000000
   O     -6.19000000   -23.36000000    32.15000000
   C     -7.95000000   -24.06000000    34.21000000
   C     -6.91000000   -23.48000000    35.14000000
   C     -7.37000000   -22.39000000    35.89000000
   C     -5.77000000   -24.16000000    35.60000000
   C     -6.65000000   -21.88000000    36.97000000
   C     -4.98000000   -23.64000000    36.63000000
   C     -5.44000000   -22.51000000    37.33000000
   O     -4.80000000   -22.06000000    38.45000000
   H     -9.12000000   -24.53000000    31.52000000
   H     -8.82000000   -22.30000000    33.30000000
   H     -7.53000000   -25.02000000    33.89000000
   H     -8.79000000   -24.31000000    34.86000000
   H     -8.29000000   -21.91000000    35.57000000
   H     -5.56000000   -25.15000000    35.22000000
   H     -6.96000000   -21.14000000    37.69000000
   H     -4.15000000   -24.26000000    36.94000000
   H     -4.09000000   -22.65000000    38.67000000
   N     -7.65000000   -22.35000000    30.83000000
   C     -6.79000000   -22.42000000    29.66000000
   C     -5.52000000   -21.60000000    29.83000000
   O     -4.44000000   -22.12000000    29.58000000
   C     -7.53000000   -22.10000000    28.37000000
   C     -6.67000000   -22.18000000    27.12000000
   C     -7.55000000   -21.96000000    25.90000000
   O     -7.64000000   -20.85000000    25.34000000
   O     -7.99000000   -23.03000000    25.42000000
   H     -8.63000000   -22.14000000    30.69000000
   H     -6.47000000   -23.45000000    29.49000000
   H     -8.01000000   -21.12000000    28.38000000
   H     -8.32000000   -22.85000000    28.33000000
   H     -6.18000000   -23.16000000    27.12000000
   H     -5.89000000   -21.42000000    27.11000000
   N     -5.50000000   -20.31000000    30.20000000
   C     -6.63000000   -19.42000000    30.32000000
   C     -7.18000000   -19.31000000    31.73000000
   O     -6.60000000   -19.85000000    32.68000000
   C     -6.18000000   -18.00000000    29.97000000
   C     -5.61000000   -17.93000000    28.56000000
   C     -6.58000000   -18.08000000    27.40000000
   O     -7.82000000   -18.16000000    27.53000000
   O     -6.10000000   -18.20000000    26.25000000
   H     -4.55000000   -19.95000000    30.24000000
   H     -7.42000000   -19.70000000    29.63000000
   H     -5.34000000   -17.82000000    30.65000000
   H     -6.93000000   -17.24000000    30.18000000
   H     -4.79000000   -18.64000000    28.45000000
   H     -5.26000000   -16.90000000    28.51000000
   N     -8.29000000   -18.61000000    31.95000000
   C     -8.98000000   -18.28000000    33.19000000
   H     -9.98400000   -18.70500000    33.17100000
   H     -8.42800000   -18.69200000    34.03500000
   H     -9.04700000   -17.19700000    33.29200000
   H     -8.84000000   -18.39000000    31.13000000
  Ca     -8.27400000   -18.38400000    24.87000000
   O     -8.20400000   -19.57400000    22.58000000
   H     -8.92400000   -19.59400000    21.95000000
   H     -7.50400000   -20.07400000    22.16000000

Ca 1.00



