%chk=loop3.apoCaM-CA-Ng.Init31.run44.water6.chk
%nprocshared=20
%mem=10GB
%nosave
#b3lyp/svp scf=(tight,noincore,xqc) Test 
#IOP(5/87=12) Density=Current Pop=(MK,readradii) iop(6/33=2) iop(6/42=6)

loop3.apoCaM-CA-Ng.Init31.run44.water6 

   0  1 
   C    100.30000000    31.19000000     8.89000000
   C    101.74000000    31.69000000     8.97000000
   O    102.02000000    32.79000000     8.51000000
   H     99.66600000    31.97400000     8.47600000
   H    100.25500000    30.31000000     8.24800000
   H     99.94900000    30.93000000     9.88900000
   N    102.61000000    30.83000000     9.50000000
   C    104.02000000    31.16000000     9.58000000
   C    104.89000000    30.11000000     8.91000000
   O    104.43000000    29.03000000     8.55000000
   C    104.42000000    31.38000000    11.04000000
   C    104.00000000    30.26000000    11.98000000
   O    102.97000000    30.41000000    12.66000000
   O    104.71000000    29.23000000    12.08000000
   H    102.27000000    30.01000000     9.98000000
   H    104.15000000    32.10000000     9.05000000
   H    104.13000000    32.33000000    11.47000000
   H    105.51000000    31.42000000    11.02000000
   N    106.19000000    30.40000000     8.81000000
   C    107.13000000    29.47000000     8.22000000
   C    106.98000000    29.21000000     6.73000000
   O    107.72000000    28.42000000     6.15000000
   C    108.56000000    29.95000000     8.45000000
   C    108.96000000    30.15000000     9.91000000
   C    110.26000000    30.94000000    10.00000000
   C    110.61000000    31.17000000    11.47000000
   N    111.77000000    32.05000000    11.71000000
   H    106.56000000    31.32000000     8.98000000
   H    106.98000000    28.50000000     8.69000000
   H    108.77000000    30.81000000     7.82000000
   H    109.25000000    29.16000000     8.16000000
   H    108.94000000    29.21000000    10.45000000
   H    108.21000000    30.85000000    10.30000000
   H    110.18000000    31.95000000     9.60000000
   H    111.14000000    30.48000000     9.57000000
   H    110.90000000    30.24000000    11.97000000
   H    109.80000000    31.57000000    12.08000000
   H    111.66000000    32.97000000    11.32000000
   H    112.07000000    32.08000000    12.67000000
   H    112.56000000    31.57000000    11.30000000
   N    106.15000000    30.00000000     6.05000000
   C    105.52000000    29.75000000     4.76000000
   C    106.00000000    30.69000000     3.66000000
   O    105.70000000    30.39000000     2.51000000
   C    104.00000000    29.83000000     4.92000000
   C    103.54000000    31.08000000     5.65000000
   O    102.34000000    31.40000000     5.66000000
   O    104.31000000    31.91000000     6.19000000
   H    105.69000000    30.70000000     6.61000000
   H    105.72000000    28.74000000     4.43000000
   H    103.56000000    29.02000000     5.50000000
   H    103.48000000    29.83000000     3.96000000
   N    106.67000000    31.81000000     3.95000000
   C    107.04000000    32.84000000     3.00000000
   C    108.52000000    33.17000000     2.92000000
   O    109.29000000    32.27000000     3.23000000
   H    106.87000000    31.92000000     4.93000000
   H    106.53000000    33.73000000     3.36000000
   H    106.65000000    32.70000000     1.99000000
   N    108.99000000    34.39000000     2.66000000
   C    108.22000000    35.60000000     2.48000000
   C    107.73000000    36.03000000     3.86000000
   O    108.26000000    35.57000000     4.87000000
   C    109.08000000    36.66000000     1.80000000
   C    109.22000000    36.34000000     0.32000000
   N    110.34000000    35.75000000    -0.12000000
   O    108.38000000    36.64000000    -0.52000000
   H    110.00000000    34.36000000     2.60000000
   H    107.33000000    35.40000000     1.88000000
   H    110.04000000    36.72000000     2.32000000
   H    108.54000000    37.61000000     1.83000000
   H    111.20000000    35.79000000     0.41000000
   H    110.33000000    35.76000000    -1.13000000
   N    106.77000000    36.94000000     4.00000000
   C    105.97000000    37.55000000     2.96000000
   C    104.94000000    36.64000000     2.31000000
   O    105.10000000    35.42000000     2.32000000
   H    106.63000000    37.37000000     4.90000000
   H    106.57000000    38.01000000     2.18000000
   H    105.43000000    38.34000000     3.49000000
   N    103.92000000    37.19000000     1.63000000
   C    102.99000000    36.35000000     0.91000000
   C    103.61000000    35.77000000    -0.35000000
   O    104.28000000    36.35000000    -1.20000000
   C    101.75000000    37.19000000     0.62000000
   C    100.79000000    37.51000000     1.75000000
   C     99.67000000    36.68000000     1.88000000
   C    101.25000000    38.30000000     2.81000000
   C     98.96000000    36.72000000     3.09000000
   C    100.47000000    38.48000000     3.95000000
   C     99.35000000    37.63000000     4.09000000
   O     98.60000000    37.66000000     5.23000000
   H    103.86000000    38.19000000     1.57000000
   H    102.66000000    35.54000000     1.57000000
   H    101.20000000    36.75000000    -0.21000000
   H    102.12000000    38.12000000     0.20000000
   H     99.50000000    35.99000000     1.08000000
   H    102.13000000    38.90000000     2.60000000
   H     98.19000000    35.98000000     3.24000000
   H    100.80000000    39.17000000     4.71000000
   H     99.00000000    38.28000000     5.84000000
   N    103.40000000    34.47000000    -0.61000000
   C    103.78000000    33.75000000    -1.81000000
   C    102.69000000    33.67000000    -2.86000000
   O    103.04000000    33.57000000    -4.03000000
   C    104.06000000    32.34000000    -1.30000000
   C    105.51000000    32.20000000    -0.82000000
   C    103.18000000    31.71000000    -0.22000000
   C    106.57000000    32.51000000    -1.87000000
   H    102.80000000    33.96000000     0.01000000
   H    104.62000000    34.20000000    -2.33000000
   H    104.03000000    31.61000000    -2.11000000
   H    105.67000000    31.13000000    -0.69000000
   H    105.68000000    32.78000000     0.09000000
   H    103.30000000    32.20000000     0.74000000
   H    102.12000000    31.72000000    -0.44000000
   H    103.52000000    30.68000000    -0.07000000
   H    106.61000000    33.52000000    -2.27000000
   H    107.56000000    32.29000000    -1.47000000
   H    106.39000000    31.76000000    -2.64000000
   N    101.40000000    33.75000000    -2.51000000
   C    100.24000000    33.98000000    -3.35000000
   C     99.23000000    32.84000000    -3.37000000
   O     98.31000000    32.88000000    -4.18000000
   C     99.53000000    35.25000000    -2.89000000
   O     98.86000000    35.03000000    -1.67000000
   H    101.24000000    33.92000000    -1.53000000
   H    100.67000000    34.05000000    -4.35000000
   H     98.83000000    35.58000000    -3.65000000
   H    100.21000000    36.10000000    -2.85000000
   H     99.43000000    34.70000000    -0.96000000
   N     99.42000000    31.76000000    -2.60000000
   C     98.55000000    30.61000000    -2.57000000
   C     98.38000000    29.83000000    -1.27000000
   O     99.31000000    29.82000000    -0.46000000
   C     98.90000000    29.66000000    -3.71000000
   H    100.22000000    31.80000000    -1.99000000
   H     97.54000000    31.02000000    -2.63000000
   H     98.97000000    30.09000000    -4.71000000
   H     99.82000000    29.17000000    -3.37000000
   H     98.24000000    28.79000000    -3.75000000
   N     97.23000000    29.18000000    -1.08000000
   C     96.77000000    28.49000000     0.11000000
   C     96.87000000    29.19000000     1.46000000
   O     97.08000000    28.57000000     2.50000000
   C     97.32000000    27.07000000     0.08000000
   H     96.61000000    29.16000000    -1.87000000
   H     95.69000000    28.39000000    -0.04000000
   H     98.41000000    26.98000000     0.08000000
   H     96.91000000    26.49000000     0.90000000
   H     96.92000000    26.66000000    -0.84000000
   N     96.68000000    30.51000000     1.41000000
   C     96.83000000    31.34000000     2.59000000
   C     95.67000000    32.25000000     2.94000000
   O     95.74000000    32.93000000     3.96000000
   C     98.19000000    32.03000000     2.46000000
   C     98.48000000    32.77000000     1.16000000
   C     99.91000000    33.28000000     1.07000000
   O    100.64000000    33.40000000     2.08000000
   O    100.40000000    33.72000000     0.01000000
   H     96.45000000    31.00000000     0.56000000
   H     96.87000000    30.69000000     3.47000000
   H     98.88000000    31.20000000     2.58000000
   H     98.29000000    32.67000000     3.34000000
   H     97.72000000    33.56000000     1.09000000
   H     98.26000000    32.25000000     0.23000000
   N     94.67000000    32.45000000     2.08000000
   C     93.56000000    33.34000000     2.35000000
   H     92.70000000    32.75700000     2.68000000
   H     93.84100000    34.04600000     3.13200000
   H     93.30200000    33.88600000     1.44200000
   H     94.73000000    31.91000000     1.23000000
  Ca    102.70000000    34.03000000     6.23000000
   O    100.55000000    34.15000000     4.63000000
   H    100.52000000    34.07000000     3.68000000
   H     99.64000000    34.34000000     4.88000000
   O    103.48000000    33.50000000     3.25000000
   H    103.98000000    33.89000000     2.54000000
   H    102.62000000    33.31000000     2.86000000
   O    102.62000000    36.40000000     4.87000000
   H    102.69000000    37.02000000     5.60000000
   H    102.12000000    36.86000000     4.20000000
   O    100.27000000    35.41000000     7.12000000
   H     99.84000000    36.03000000     7.71000000
   H     99.59000000    35.18000000     6.49000000
   O    105.50000000    34.72000000     5.68000000
   H    106.20000000    34.07000000     5.71000000
   H    105.65000000    35.21000000     4.87000000
   O    103.42000000    35.41000000     8.46000000
   H    104.26000000    35.60000000     8.86000000
   H    102.78000000    35.90000000     8.98000000

Ca 1.00



