%chk=loop1.apoCaM-CA-Ng.Init293.run30.water4.chk
%nprocshared=20
%mem=10GB
%nosave
#b3lyp/svp scf=(tight,noincore,xqc) Test 
#IOP(5/87=12) Density=Current Pop=(MK,readradii) iop(6/33=2) iop(6/42=6)

loop1.apoCaM-CA-Ng.Init293.run30.water4 

   0  1 
   C     36.73000000    71.36000000    15.99000000
   C     37.49000000    70.14000000    16.49000000
   O     38.57000000    69.97000000    15.93000000
   H     35.79900000    71.46100000    16.54700000
   H     37.33800000    72.25300000    16.13600000
   H     36.50700000    71.24100000    14.93000000
   N     37.02000000    69.31000000    17.43000000
   C     37.71000000    68.13000000    17.90000000
   C     37.23000000    66.90000000    17.14000000
   O     37.55000000    65.78000000    17.51000000
   C     37.44000000    68.03000000    19.40000000
   C     35.99000000    67.99000000    19.84000000
   O     35.75000000    67.49000000    20.96000000
   O     35.10000000    68.57000000    19.18000000
   H     36.09000000    69.44000000    17.81000000
   H     38.77000000    68.19000000    17.63000000
   H     37.92000000    68.82000000    19.97000000
   H     37.79000000    67.07000000    19.76000000
   N     36.43000000    67.08000000    16.08000000
   C     35.74000000    65.99000000    15.42000000
   C     35.90000000    66.02000000    13.91000000
   O     35.08000000    66.56000000    13.17000000
   C     34.28000000    65.95000000    15.86000000
   C     34.14000000    66.01000000    17.38000000
   C     32.67000000    65.84000000    17.77000000
   C     32.38000000    66.12000000    19.24000000
   N     32.54000000    67.54000000    19.58000000
   H     36.06000000    67.99000000    15.87000000
   H     36.11000000    65.04000000    15.82000000
   H     33.78000000    65.06000000    15.48000000
   H     33.84000000    66.89000000    15.50000000
   H     34.54000000    66.99000000    17.64000000
   H     34.78000000    65.28000000    17.89000000
   H     32.32000000    64.89000000    17.38000000
   H     32.07000000    66.53000000    17.18000000
   H     33.08000000    65.58000000    19.88000000
   H     31.34000000    65.93000000    19.47000000
   H     31.93000000    68.13000000    19.03000000
   H     32.47000000    67.70000000    20.57000000
   H     33.50000000    67.78000000    19.36000000
   N     36.92000000    65.42000000    13.29000000
   C     38.15000000    64.78000000    13.71000000
   C     37.96000000    63.44000000    14.39000000
   O     36.81000000    63.03000000    14.51000000
   C     38.99000000    65.82000000    14.45000000
   C     40.40000000    66.18000000    14.02000000
   O     40.89000000    67.08000000    14.74000000
   O     41.06000000    65.54000000    13.17000000
   H     36.86000000    65.47000000    12.28000000
   H     38.79000000    64.49000000    12.87000000
   H     39.10000000    65.49000000    15.49000000
   H     38.51000000    66.79000000    14.49000000
   N     38.91000000    62.63000000    14.87000000
   C     40.29000000    62.90000000    15.18000000
   C     40.76000000    62.07000000    16.36000000
   O     40.21000000    61.08000000    16.82000000
   H     38.62000000    61.72000000    15.19000000
   H     40.45000000    63.95000000    15.45000000
   H     40.91000000    62.74000000    14.29000000
   N     41.73000000    62.48000000    17.19000000
   C     42.52000000    63.68000000    17.00000000
   C     41.91000000    64.91000000    17.67000000
   O     42.29000000    66.02000000    17.31000000
   C     43.98000000    63.48000000    17.41000000
   C     44.22000000    63.22000000    18.89000000
   O     45.12000000    62.44000000    19.28000000
   O     43.56000000    63.79000000    19.78000000
   H     41.76000000    62.06000000    18.10000000
   H     42.47000000    63.91000000    15.94000000
   H     44.63000000    64.27000000    17.02000000
   H     44.25000000    62.60000000    16.84000000
   N     40.97000000    64.69000000    18.58000000
   C     40.22000000    65.77000000    19.20000000
   C     41.03000000    66.82000000    19.94000000
   O     40.47000000    67.87000000    20.24000000
   H     40.71000000    63.75000000    18.83000000
   H     39.48000000    65.26000000    19.82000000
   H     39.59000000    66.25000000    18.45000000
   N     42.30000000    66.48000000    20.16000000
   C     43.22000000    67.47000000    20.69000000
   C     43.18000000    68.72000000    19.82000000
   O     43.24000000    68.68000000    18.60000000
   C     44.63000000    66.99000000    21.04000000
   C     45.55000000    66.78000000    19.84000000
   O     44.55000000    65.81000000    21.80000000
   H     42.70000000    65.61000000    19.84000000
   H     42.79000000    67.76000000    21.65000000
   H     44.97000000    67.85000000    21.62000000
   H     44.40000000    65.09000000    21.18000000
   H     45.05000000    65.98000000    19.28000000
   H     45.54000000    67.69000000    19.24000000
   H     46.56000000    66.52000000    20.16000000
   N     42.95000000    69.83000000    20.52000000
   C     42.76000000    71.13000000    19.90000000
   C     43.77000000    72.14000000    20.42000000
   O     43.46000000    73.17000000    21.01000000
   C     41.29000000    71.53000000    19.99000000
   C     40.86000000    72.52000000    18.91000000
   C     40.77000000    71.93000000    21.36000000
   C     39.35000000    72.45000000    18.77000000
   H     42.74000000    69.78000000    21.51000000
   H     42.98000000    71.14000000    18.83000000
   H     40.76000000    70.60000000    19.81000000
   H     41.25000000    72.20000000    17.94000000
   H     41.21000000    73.52000000    19.18000000
   H     39.69000000    71.94000000    21.49000000
   H     41.27000000    71.33000000    22.12000000
   H     41.03000000    72.95000000    21.65000000
   H     39.15000000    73.13000000    17.94000000
   H     39.00000000    71.49000000    18.41000000
   H     38.85000000    72.87000000    19.65000000
   N     45.04000000    71.85000000    20.13000000
   C     46.16000000    72.68000000    20.51000000
   C     46.69000000    73.62000000    19.44000000
   O     47.52000000    74.48000000    19.72000000
   C     47.25000000    71.85000000    21.20000000
   C     47.86000000    70.82000000    20.26000000
   O     46.69000000    71.22000000    22.33000000
   H     45.24000000    70.89000000    19.87000000
   H     45.82000000    73.34000000    21.31000000
   H     48.12000000    72.37000000    21.60000000
   H     46.52000000    71.89000000    23.00000000
   H     47.11000000    70.07000000    20.02000000
   H     48.18000000    71.28000000    19.33000000
   H     48.73000000    70.39000000    20.76000000
   N     46.14000000    73.65000000    18.22000000
   C     46.70000000    74.29000000    17.05000000
   C     48.06000000    73.72000000    16.67000000
   O     48.79000000    73.29000000    17.56000000
   C     46.69000000    75.81000000    17.18000000
   C     45.42000000    76.40000000    17.80000000
   O     46.98000000    76.43000000    15.95000000
   H     45.32000000    73.11000000    18.00000000
   H     46.00000000    74.10000000    16.23000000
   H     47.51000000    75.98000000    17.87000000
   H     46.13000000    76.61000000    15.52000000
   H     44.70000000    76.31000000    16.99000000
   H     44.95000000    75.87000000    18.63000000
   H     45.62000000    77.44000000    18.04000000
   N     48.45000000    73.81000000    15.39000000
   C     49.77000000    73.50000000    14.88000000
   C     49.90000000    72.90000000    13.49000000
   O     51.02000000    72.66000000    13.05000000
   C     50.66000000    74.73000000    15.05000000
   C     50.70000000    75.51000000    16.36000000
   C     51.83000000    76.53000000    16.25000000
   C     51.92000000    77.34000000    17.54000000
   N     52.83000000    78.49000000    17.44000000
   H     47.80000000    74.23000000    14.75000000
   H     50.28000000    72.77000000    15.50000000
   H     50.44000000    75.50000000    14.31000000
   H     51.69000000    74.40000000    14.90000000
   H     50.97000000    74.84000000    17.17000000
   H     49.76000000    76.06000000    16.47000000
   H     51.57000000    77.20000000    15.42000000
   H     52.76000000    75.98000000    16.12000000
   H     52.19000000    76.73000000    18.41000000
   H     50.92000000    77.71000000    17.78000000
   H     52.79000000    79.06000000    18.27000000
   H     53.78000000    78.26000000    17.17000000
   H     52.45000000    79.04000000    16.68000000
   N     48.90000000    72.37000000    12.78000000
   C     47.46000000    72.42000000    12.89000000
   C     46.83000000    73.81000000    12.92000000
   O     45.88000000    74.06000000    13.66000000
   C     46.99000000    71.34000000    13.86000000
   C     45.52000000    71.00000000    13.58000000
   C     44.92000000    69.95000000    14.50000000
   O     44.44000000    70.25000000    15.61000000
   O     44.85000000    68.77000000    14.11000000
   H     49.25000000    71.96000000    11.92000000
   H     47.11000000    72.05000000    11.92000000
   H     46.98000000    71.56000000    14.92000000
   H     47.58000000    70.44000000    13.71000000
   H     45.40000000    70.78000000    12.52000000
   H     44.95000000    71.92000000    13.74000000
   N     47.42000000    74.77000000    12.21000000
   C     46.91000000    76.12000000    12.04000000
   H     45.95900000    76.21700000    12.56300000
   H     47.62400000    76.83300000    12.45100000
   H     46.76300000    76.32300000    10.97900000
   H     48.16000000    74.58000000    11.56000000
  Ca     43.06000000    68.10000000    15.86000000
   O     45.60000000    67.46000000    16.55000000
   H     46.37000000    67.15000000    17.03000000
   H     45.94000000    67.71000000    15.69000000
   O     43.56000000    65.93000000    14.23000000
   H     42.72000000    65.82000000    13.78000000
   H     44.13000000    65.27000000    13.84000000
   O     41.73000000    69.48000000    13.91000000
   H     41.18000000    68.69000000    13.87000000
   H     41.83000000    69.74000000    13.00000000
   O     41.17000000    69.59000000    16.96000000
   H     40.26000000    69.54000000    16.66000000
   H     41.24000000    70.44000000    17.39000000

Ca 1.00



