%chk=loop3.holoCaM.run64.water3.chk
%nprocshared=20
%mem=10GB
%nosave
#b3lyp/svp scf=(tight,noincore,xqc) Test 
#IOP(5/87=12) Density=Current Pop=(MK,readradii) iop(6/33=2) iop(6/42=6)

loop3.holoCaM.run64.water3 

   0  1 
   C     75.18000000    55.58000000    27.57000000
   C     75.53000000    56.64000000    28.59000000
   O     76.24000000    56.34000000    29.55000000
   H     74.31200000    55.90300000    26.99400000
   H     76.02500000    55.42800000    26.89800000
   H     74.94900000    54.64500000    28.08100000
   N     74.99000000    57.86000000    28.48000000
   C     75.01000000    58.95000000    29.44000000
   C     73.82000000    58.84000000    30.38000000
   O     72.64000000    58.78000000    30.03000000
   C     74.91000000    60.26000000    28.66000000
   C     75.14000000    61.52000000    29.49000000
   O     75.28000000    62.58000000    28.84000000
   O     75.15000000    61.45000000    30.74000000
   H     74.61000000    58.08000000    27.57000000
   H     75.97000000    58.93000000    29.95000000
   H     73.92000000    60.39000000    28.23000000
   H     75.58000000    60.20000000    27.80000000
   N     74.05000000    58.74000000    31.70000000
   C     73.04000000    58.46000000    32.69000000
   C     72.53000000    59.68000000    33.45000000
   O     71.65000000    59.59000000    34.31000000
   C     73.55000000    57.44000000    33.70000000
   C     73.90000000    56.20000000    32.88000000
   C     74.09000000    54.92000000    33.69000000
   C     72.88000000    54.41000000    34.48000000
   N     71.85000000    54.18000000    33.45000000
   H     74.98000000    58.89000000    32.05000000
   H     72.17000000    57.96000000    32.25000000
   H     72.80000000    57.18000000    34.44000000
   H     74.48000000    57.76000000    34.17000000
   H     74.85000000    56.32000000    32.36000000
   H     73.11000000    56.03000000    32.15000000
   H     74.84000000    55.07000000    34.47000000
   H     74.40000000    54.10000000    33.05000000
   H     72.67000000    55.08000000    35.31000000
   H     73.18000000    53.51000000    35.02000000
   H     72.16000000    53.51000000    32.76000000
   H     71.02000000    53.81000000    33.89000000
   H     71.55000000    54.99000000    32.93000000
   N     73.01000000    60.86000000    33.07000000
   C     72.40000000    62.09000000    33.52000000
   C     72.23000000    63.11000000    32.40000000
   O     71.72000000    64.19000000    32.68000000
   C     73.14000000    62.76000000    34.68000000
   C     74.62000000    62.97000000    34.39000000
   O     75.13000000    63.11000000    33.25000000
   O     75.38000000    63.01000000    35.38000000
   H     73.77000000    60.90000000    32.41000000
   H     71.40000000    61.91000000    33.91000000
   H     73.08000000    62.15000000    35.59000000
   H     72.57000000    63.67000000    34.86000000
   N     72.69000000    62.85000000    31.18000000
   C     72.53000000    63.74000000    30.04000000
   C     73.27000000    65.07000000    30.06000000
   O     72.93000000    66.00000000    29.33000000
   H     73.46000000    62.20000000    31.15000000
   H     71.49000000    64.03000000    30.00000000
   H     72.79000000    63.15000000    29.16000000
   N     74.34000000    65.10000000    30.86000000
   C     75.31000000    66.17000000    30.82000000
   C     76.04000000    66.25000000    29.49000000
   O     76.63000000    67.29000000    29.20000000
   C     76.22000000    66.17000000    32.05000000
   C     77.39000000    65.19000000    32.02000000
   N     78.49000000    65.64000000    32.64000000
   O     77.33000000    64.10000000    31.47000000
   H     74.35000000    64.47000000    31.65000000
   H     74.69000000    67.06000000    30.94000000
   H     75.60000000    66.04000000    32.93000000
   H     76.57000000    67.20000000    32.14000000
   H     78.64000000    66.63000000    32.80000000
   H     79.32000000    65.07000000    32.70000000
   N     75.92000000    65.30000000    28.56000000
   C     76.53000000    65.21000000    27.25000000
   C     77.86000000    64.48000000    27.12000000
   O     78.49000000    64.50000000    26.06000000
   H     75.23000000    64.61000000    28.83000000
   H     76.57000000    66.22000000    26.83000000
   H     75.82000000    64.70000000    26.61000000
   N     78.25000000    63.76000000    28.17000000
   C     79.58000000    63.22000000    28.40000000
   C     79.40000000    61.84000000    29.01000000
   O     78.45000000    61.50000000    29.72000000
   C     80.37000000    64.12000000    29.34000000
   C     80.55000000    65.51000000    28.77000000
   C     80.00000000    66.59000000    29.48000000
   C     81.17000000    65.75000000    27.54000000
   C     80.02000000    67.86000000    28.89000000
   C     81.26000000    67.04000000    27.00000000
   C     80.63000000    68.13000000    27.65000000
   O     80.48000000    69.38000000    27.13000000
   H     77.54000000    63.66000000    28.89000000
   H     80.12000000    63.10000000    27.46000000
   H     81.35000000    63.68000000    29.51000000
   H     79.80000000    64.24000000    30.26000000
   H     79.44000000    66.40000000    30.38000000
   H     81.74000000    65.00000000    27.02000000
   H     79.57000000    68.67000000    29.45000000
   H     81.81000000    67.20000000    26.09000000
   H     80.85000000    69.35000000    26.25000000
   N     80.42000000    60.99000000    28.95000000
   C     80.63000000    59.65000000    29.47000000
   C     81.70000000    59.81000000    30.55000000
   O     82.83000000    60.19000000    30.28000000
   C     81.03000000    58.67000000    28.38000000
   C     80.18000000    58.73000000    27.11000000
   C     81.16000000    57.25000000    28.93000000
   C     78.70000000    58.48000000    27.42000000
   H     81.20000000    61.31000000    28.40000000
   H     79.71000000    59.35000000    29.98000000
   H     82.05000000    58.87000000    28.08000000
   H     80.53000000    57.90000000    26.50000000
   H     80.28000000    59.70000000    26.62000000
   H     80.15000000    57.10000000    29.31000000
   H     81.46000000    56.62000000    28.09000000
   H     81.90000000    57.15000000    29.72000000
   H     78.50000000    57.51000000    27.87000000
   H     78.30000000    59.19000000    28.14000000
   H     78.07000000    58.50000000    26.53000000
   N     81.47000000    59.53000000    31.83000000
   C     82.54000000    59.45000000    32.80000000
   C     83.19000000    58.08000000    32.68000000
   O     82.65000000    57.17000000    32.06000000
   C     81.98000000    59.67000000    34.20000000
   O     80.85000000    58.88000000    34.51000000
   H     80.56000000    59.15000000    32.03000000
   H     83.21000000    60.31000000    32.70000000
   H     81.74000000    60.72000000    34.33000000
   H     82.79000000    59.43000000    34.89000000
   H     80.06000000    59.31000000    34.17000000
   N     84.27000000    57.93000000    33.45000000
   C     84.89000000    56.65000000    33.69000000
   C     83.95000000    55.50000000    33.98000000
   O     83.91000000    54.49000000    33.28000000
   C     85.96000000    56.82000000    34.77000000
   H     84.65000000    58.68000000    34.01000000
   H     85.42000000    56.39000000    32.77000000
   H     86.50000000    55.89000000    34.91000000
   H     86.69000000    57.56000000    34.42000000
   H     85.46000000    57.15000000    35.68000000
   N     82.93000000    55.72000000    34.82000000
   C     81.89000000    54.79000000    35.22000000
   C     80.88000000    54.50000000    34.11000000
   O     80.45000000    53.35000000    33.99000000
   C     81.40000000    55.39000000    36.53000000
   H     82.95000000    56.56000000    35.38000000
   H     82.36000000    53.81000000    35.36000000
   H     80.60000000    54.76000000    36.92000000
   H     82.16000000    55.58000000    37.29000000
   H     80.92000000    56.33000000    36.25000000
   N     80.44000000    55.47000000    33.32000000
   C     79.51000000    55.20000000    32.24000000
   C     80.13000000    54.49000000    31.04000000
   O     79.43000000    53.78000000    30.32000000
   C     78.97000000    56.57000000    31.82000000
   C     77.98000000    57.20000000    32.80000000
   C     77.81000000    58.70000000    32.65000000
   O     76.79000000    59.22000000    32.14000000
   O     78.78000000    59.48000000    32.83000000
   H     80.94000000    56.35000000    33.38000000
   H     78.62000000    54.66000000    32.54000000
   H     78.41000000    56.55000000    30.89000000
   H     79.84000000    57.20000000    31.66000000
   H     78.36000000    57.11000000    33.82000000
   H     77.03000000    56.67000000    32.87000000
   N     81.47000000    54.52000000    31.01000000
   C     82.27000000    53.62000000    30.20000000
   H     83.24100000    53.47200000    30.67300000
   H     81.76000000    52.66100000    30.11100000
   H     82.41100000    54.05100000    29.20900000
   H     81.95000000    54.91000000    31.80000000
  Ca     77.07000000    61.66000000    32.38000000
   O     76.43000000    60.19000000    34.85000000
   H     75.92000000    59.47000000    35.22000000
   H     76.52000000    60.82000000    35.56000000
   O     78.42000000    62.54000000    34.49000000
   H     78.00000000    63.05000000    35.18000000
   H     79.31000000    62.89000000    34.45000000
   O     80.11000000    62.40000000    32.30000000
   H     80.99000000    62.71000000    32.07000000
   H     80.22000000    61.46000000    32.42000000

Ca 1.00



