%chk=loop1.apoCaM-CA-Ng.Init293.run54.water6.chk
%nprocshared=20
%mem=10GB
%nosave
#b3lyp/svp scf=(tight,noincore,xqc) Test 
#IOP(5/87=12) Density=Current Pop=(MK,readradii) iop(6/33=2) iop(6/42=6)

loop1.apoCaM-CA-Ng.Init293.run54.water6 

   0  1 
   C     72.66000000    87.17000000   101.63000000
   C     74.00000000    87.82000000   101.98000000
   O     74.26000000    88.99000000   101.70000000
   H     71.92600000    87.94600000   101.41400000
   H     72.78200000    86.53200000   100.75400000
   H     72.31600000    86.57000000   102.47200000
   N     74.94000000    87.09000000   102.58000000
   C     76.24000000    87.48000000   103.09000000
   C     77.31000000    87.65000000   102.02000000
   O     78.44000000    87.82000000   102.47000000
   C     76.77000000    86.54000000   104.17000000
   C     76.97000000    85.09000000   103.73000000
   O     78.04000000    84.49000000   103.96000000
   O     75.98000000    84.56000000   103.17000000
   H     74.84000000    86.10000000   102.71000000
   H     76.07000000    88.45000000   103.56000000
   H     76.01000000    86.52000000   104.95000000
   H     77.67000000    87.02000000   104.55000000
   N     76.95000000    87.56000000   100.74000000
   C     77.92000000    87.25000000    99.71000000
   C     78.17000000    88.53000000    98.92000000
   O     77.19000000    89.20000000    98.62000000
   C     77.42000000    86.10000000    98.84000000
   C     77.28000000    84.79000000    99.62000000
   C     78.47000000    84.42000000   100.50000000
   C     78.63000000    82.92000000   100.73000000
   N     77.57000000    82.40000000   101.60000000
   H     76.01000000    87.22000000   100.62000000
   H     78.84000000    86.87000000   100.16000000
   H     78.05000000    86.02000000    97.96000000
   H     76.39000000    86.20000000    98.50000000
   H     77.26000000    84.06000000    98.82000000
   H     76.34000000    84.77000000   100.18000000
   H     78.34000000    84.88000000   101.48000000
   H     79.37000000    84.76000000    99.99000000
   H     79.57000000    82.83000000   101.27000000
   H     78.61000000    82.53000000    99.71000000
   H     76.73000000    82.27000000   101.06000000
   H     77.73000000    81.51000000   102.03000000
   H     77.30000000    83.06000000   102.32000000
   N     79.42000000    88.75000000    98.51000000
   C     80.68000000    88.36000000    99.11000000
   C     81.57000000    89.58000000    99.24000000
   O     82.66000000    89.65000000    98.66000000
   C     81.31000000    87.26000000    98.27000000
   C     82.63000000    86.63000000    98.70000000
   O     83.61000000    86.78000000    97.94000000
   O     82.67000000    86.10000000    99.83000000
   H     79.53000000    89.54000000    97.89000000
   H     80.65000000    87.96000000   100.13000000
   H     81.50000000    87.53000000    97.23000000
   H     80.66000000    86.40000000    98.13000000
   N     81.21000000    90.70000000    99.87000000
   C     80.15000000    90.75000000   100.86000000
   C     79.93000000    92.16000000   101.39000000
   O     80.88000000    92.94000000   101.48000000
   H     81.70000000    91.57000000    99.68000000
   H     80.45000000    90.02000000   101.62000000
   H     79.22000000    90.34000000   100.47000000
   N     78.69000000    92.57000000   101.67000000
   C     77.44000000    91.84000000   101.59000000
   C     76.61000000    92.08000000   102.84000000
   O     76.91000000    93.02000000   103.59000000
   C     76.64000000    92.24000000   100.36000000
   C     76.36000000    93.72000000   100.13000000
   O     76.39000000    94.21000000    98.98000000
   O     76.04000000    94.42000000   101.12000000
   H     78.56000000    93.45000000   102.15000000
   H     77.60000000    90.76000000   101.66000000
   H     75.68000000    91.72000000   100.46000000
   H     77.18000000    91.86000000    99.50000000
   N     75.69000000    91.14000000   103.04000000
   C     74.70000000    91.30000000   104.09000000
   C     73.50000000    92.19000000   103.78000000
   O     72.38000000    91.91000000   104.19000000
   H     75.50000000    90.37000000   102.41000000
   H     75.20000000    91.63000000   105.00000000
   H     74.32000000    90.29000000   104.23000000
   N     73.67000000    93.24000000   102.97000000
   C     72.55000000    93.90000000   102.35000000
   C     71.86000000    93.00000000   101.33000000
   O     72.46000000    92.19000000   100.62000000
   C     72.87000000    95.25000000   101.72000000
   C     71.72000000    96.24000000   101.53000000
   O     73.47000000    95.10000000   100.45000000
   H     74.59000000    93.42000000   102.58000000
   H     71.75000000    94.08000000   103.07000000
   H     73.56000000    95.79000000   102.37000000
   H     74.41000000    94.94000000   100.55000000
   H     70.80000000    95.71000000   101.27000000
   H     71.61000000    96.81000000   102.45000000
   H     71.90000000    96.92000000   100.69000000
   N     70.54000000    93.13000000   101.22000000
   C     69.69000000    92.56000000   100.19000000
   C     68.69000000    93.62000000    99.75000000
   O     67.61000000    93.78000000   100.31000000
   C     69.03000000    91.27000000   100.66000000
   C     67.87000000    90.77000000    99.80000000
   C     68.70000000    91.21000000   102.15000000
   C     68.22000000    90.51000000    98.34000000
   H     70.02000000    93.76000000   101.81000000
   H     70.28000000    92.22000000    99.34000000
   H     69.84000000    90.56000000   100.54000000
   H     66.98000000    91.40000000    99.85000000
   H     67.62000000    89.79000000   100.20000000
   H     68.36000000    92.22000000   102.38000000
   H     67.92000000    90.52000000   102.46000000
   H     69.59000000    91.10000000   102.77000000
   H     68.18000000    91.47000000    97.83000000
   H     69.17000000    89.97000000    98.35000000
   H     67.46000000    89.90000000    97.87000000
   N     69.11000000    94.38000000    98.74000000
   C     68.40000000    95.54000000    98.22000000
   C     67.72000000    95.26000000    96.89000000
   O     66.87000000    96.03000000    96.43000000
   C     69.44000000    96.64000000    98.05000000
   C     68.80000000    97.98000000    97.72000000
   O     70.40000000    96.32000000    97.06000000
   H     70.04000000    94.23000000    98.39000000
   H     67.75000000    95.88000000    99.02000000
   H     69.97000000    96.76000000    98.99000000
   H     71.05000000    97.03000000    97.09000000
   H     67.86000000    98.00000000    98.27000000
   H     69.41000000    98.86000000    97.96000000
   H     68.58000000    97.92000000    96.65000000
   N     68.07000000    94.11000000    96.32000000
   C     67.88000000    93.62000000    94.97000000
   C     68.25000000    94.56000000    93.83000000
   O     68.34000000    95.78000000    94.00000000
   C     66.46000000    93.08000000    94.83000000
   C     65.89000000    92.16000000    95.90000000
   O     66.29000000    92.36000000    93.62000000
   H     68.65000000    93.54000000    96.92000000
   H     68.44000000    92.70000000    94.80000000
   H     65.82000000    93.96000000    94.84000000
   H     65.34000000    92.22000000    93.53000000
   H     66.51000000    91.28000000    96.08000000
   H     65.74000000    92.76000000    96.80000000
   H     64.92000000    91.73000000    95.65000000
   N     68.42000000    93.94000000    92.66000000
   C     68.59000000    94.61000000    91.39000000
   C     70.01000000    94.65000000    90.84000000
   O     70.43000000    95.62000000    90.21000000
   C     67.57000000    94.15000000    90.36000000
   C     67.45000000    95.05000000    89.13000000
   C     67.03000000    96.50000000    89.34000000
   C     65.74000000    96.69000000    90.13000000
   N     65.48000000    98.11000000    90.42000000
   H     68.23000000    92.95000000    92.59000000
   H     68.42000000    95.67000000    91.58000000
   H     66.59000000    94.12000000    90.83000000
   H     67.72000000    93.16000000    89.93000000
   H     66.60000000    94.58000000    88.62000000
   H     68.25000000    94.92000000    88.39000000
   H     66.89000000    96.93000000    88.35000000
   H     67.92000000    96.94000000    89.79000000
   H     65.74000000    96.21000000    91.11000000
   H     64.90000000    96.15000000    89.70000000
   H     64.64000000    98.32000000    90.93000000
   H     66.20000000    98.60000000    90.94000000
   H     65.22000000    98.60000000    89.57000000
   N     70.84000000    93.60000000    90.91000000
   C     70.90000000    92.31000000    91.56000000
   C     69.70000000    91.38000000    91.44000000
   O     68.97000000    91.13000000    92.40000000
   C     71.48000000    92.42000000    92.97000000
   C     72.98000000    92.69000000    93.01000000
   C     73.62000000    92.94000000    94.37000000
   O     73.22000000    93.87000000    95.11000000
   O     74.67000000    92.36000000    94.72000000
   H     71.68000000    93.77000000    90.37000000
   H     71.67000000    91.76000000    91.02000000
   H     71.30000000    91.45000000    93.44000000
   H     70.88000000    93.14000000    93.53000000
   H     73.19000000    93.49000000    92.30000000
   H     73.45000000    91.83000000    92.54000000
   N     69.47000000    90.96000000    90.20000000
   C     68.39000000    90.06000000    89.84000000
   H     67.53800000    90.64000000    89.48600000
   H     68.72500000    89.38800000    89.05000000
   H     68.09500000    89.47800000    90.71300000
   H     70.11000000    91.05000000    89.42000000
  Ca     75.47000000    94.29000000    96.56000000
   O     74.18000000    92.44000000    98.16000000
   H     74.19000000    91.54000000    98.50000000
   H     73.47000000    92.87000000    98.64000000
   O     77.18000000    92.15000000    96.89000000
   H     78.10000000    92.01000000    97.12000000
   H     76.73000000    91.39000000    97.26000000
   O     75.53000000    95.59000000    94.35000000
   H     75.64000000    96.54000000    94.30000000
   H     75.87000000    95.26000000    93.52000000
   O     75.72000000    96.91000000    97.31000000
   H     76.45000000    97.53000000    97.29000000
   H     75.14000000    97.24000000    98.00000000
   O     73.12000000    95.16000000    97.86000000
   H     73.15000000    95.15000000    98.81000000
   H     72.21000000    95.37000000    97.65000000
   O     77.91000000    95.12000000    96.37000000
   H     78.74000000    94.93000000    96.81000000
   H     78.05000000    95.96000000    95.93000000

Ca 1.00



