%chk=loop3.apoCaM-CA-Ng.Init295.run7.water3.chk
%nprocshared=20
%mem=10GB
%nosave
#b3lyp/svp scf=(tight,noincore,xqc) Test 
#IOP(5/87=12) Density=Current Pop=(MK,readradii) iop(6/33=2) iop(6/42=6)

loop3.apoCaM-CA-Ng.Init295.run7.water3 

   0  1 
   C     72.57000000    52.94000000    76.71000000
   C     72.38000000    53.15000000    78.21000000
   O     71.39000000    52.60000000    78.70000000
   H     73.62400000    52.76200000    76.49900000
   H     71.98500000    52.07900000    76.38600000
   H     72.23800000    53.82900000    76.17300000
   N     73.20000000    53.95000000    78.89000000
   C     73.31000000    54.15000000    80.32000000
   C     73.56000000    55.57000000    80.81000000
   O     74.23000000    56.30000000    80.08000000
   C     74.42000000    53.21000000    80.78000000
   C     74.72000000    53.39000000    82.26000000
   O     74.07000000    52.78000000    83.13000000
   O     75.61000000    54.19000000    82.62000000
   H     73.98000000    54.34000000    78.39000000
   H     72.38000000    53.85000000    80.80000000
   H     75.25000000    53.37000000    80.10000000
   H     74.17000000    52.17000000    80.54000000
   N     73.17000000    56.03000000    82.00000000
   C     73.42000000    57.39000000    82.43000000
   C     74.89000000    57.79000000    82.42000000
   O     75.24000000    58.92000000    82.06000000
   C     72.75000000    57.64000000    83.78000000
   C     71.25000000    57.78000000    83.54000000
   C     70.44000000    57.97000000    84.83000000
   C     68.96000000    58.06000000    84.47000000
   N     68.09000000    58.55000000    85.56000000
   H     72.67000000    55.43000000    82.64000000
   H     73.03000000    58.02000000    81.63000000
   H     73.07000000    58.61000000    84.16000000
   H     72.85000000    56.81000000    84.48000000
   H     70.90000000    56.92000000    82.97000000
   H     71.13000000    58.66000000    82.91000000
   H     70.80000000    58.88000000    85.31000000
   H     70.55000000    57.11000000    85.49000000
   H     68.68000000    57.05000000    84.19000000
   H     68.81000000    58.65000000    83.57000000
   H     67.24000000    58.93000000    85.19000000
   H     67.93000000    57.78000000    86.19000000
   H     68.44000000    59.40000000    85.98000000
   N     75.85000000    56.90000000    82.70000000
   C     77.28000000    57.07000000    82.62000000
   C     78.02000000    56.21000000    81.60000000
   O     79.23000000    56.02000000    81.76000000
   C     77.90000000    56.78000000    83.98000000
   C     77.44000000    55.54000000    84.73000000
   O     77.88000000    54.48000000    84.24000000
   O     76.62000000    55.44000000    85.66000000
   H     75.44000000    55.98000000    82.77000000
   H     77.36000000    58.15000000    82.50000000
   H     77.66000000    57.65000000    84.60000000
   H     78.99000000    56.83000000    83.99000000
   N     77.39000000    55.62000000    80.59000000
   C     78.03000000    54.83000000    79.55000000
   C     78.57000000    53.46000000    79.94000000
   O     79.25000000    52.80000000    79.16000000
   H     76.39000000    55.70000000    80.52000000
   H     78.83000000    55.45000000    79.15000000
   H     77.40000000    54.73000000    78.67000000
   N     78.36000000    53.10000000    81.21000000
   C     78.76000000    51.78000000    81.66000000
   C     77.52000000    51.07000000    82.18000000
   O     76.99000000    51.35000000    83.26000000
   C     79.82000000    52.04000000    82.72000000
   C     80.77000000    50.86000000    82.90000000
   N     81.87000000    50.98000000    83.65000000
   O     80.40000000    49.77000000    82.49000000
   H     77.80000000    53.66000000    81.84000000
   H     79.16000000    51.26000000    80.80000000
   H     79.35000000    52.29000000    83.68000000
   H     80.52000000    52.83000000    82.48000000
   H     82.13000000    51.89000000    84.02000000
   H     82.51000000    50.21000000    83.72000000
   N     77.13000000    50.03000000    81.43000000
   C     75.93000000    49.22000000    81.48000000
   C     75.55000000    48.49000000    82.76000000
   O     74.72000000    47.59000000    82.73000000
   H     77.41000000    50.05000000    80.46000000
   H     75.94000000    48.52000000    80.64000000
   H     75.11000000    49.92000000    81.30000000
   N     76.37000000    48.71000000    83.80000000
   C     76.01000000    48.41000000    85.17000000
   C     74.92000000    49.29000000    85.76000000
   O     74.97000000    50.51000000    85.64000000
   C     77.22000000    48.39000000    86.11000000
   C     78.27000000    47.36000000    85.78000000
   C     79.47000000    47.71000000    85.16000000
   C     78.07000000    46.01000000    86.08000000
   C     80.43000000    46.77000000    84.74000000
   C     78.98000000    45.06000000    85.58000000
   C     80.11000000    45.40000000    84.82000000
   O     80.99000000    44.42000000    84.46000000
   H     77.15000000    49.30000000    83.55000000
   H     75.60000000    47.40000000    85.15000000
   H     76.86000000    48.26000000    87.13000000
   H     77.57000000    49.42000000    86.08000000
   H     79.58000000    48.78000000    85.04000000
   H     77.12000000    45.81000000    86.57000000
   H     81.29000000    47.12000000    84.20000000
   H     78.91000000    44.00000000    85.74000000
   H     80.74000000    43.54000000    84.74000000
   N     73.87000000    48.65000000    86.29000000
   C     72.72000000    49.14000000    87.01000000
   C     73.00000000    49.85000000    88.33000000
   O     74.14000000    50.22000000    88.62000000
   C     71.64000000    49.81000000    86.16000000
   C     71.07000000    48.89000000    85.08000000
   C     72.05000000    51.16000000    85.59000000
   C     69.66000000    49.25000000    84.63000000
   H     74.03000000    47.65000000    86.31000000
   H     72.24000000    48.22000000    87.35000000
   H     70.85000000    50.10000000    86.85000000
   H     71.02000000    47.92000000    85.58000000
   H     71.76000000    48.80000000    84.24000000
   H     72.47000000    50.92000000    84.61000000
   H     71.14000000    51.76000000    85.45000000
   H     72.62000000    51.86000000    86.21000000
   H     69.28000000    48.43000000    84.01000000
   H     68.99000000    49.46000000    85.47000000
   H     69.73000000    50.20000000    84.11000000
   N     71.97000000    50.11000000    89.14000000
   C     72.09000000    51.15000000    90.14000000
   C     71.21000000    50.96000000    91.36000000
   O     71.36000000    51.75000000    92.29000000
   C     71.69000000    52.49000000    89.52000000
   O     70.64000000    52.39000000    88.58000000
   H     71.04000000    49.86000000    88.83000000
   H     73.09000000    51.24000000    90.56000000
   H     72.51000000    52.81000000    88.88000000
   H     71.54000000    53.17000000    90.36000000
   H     70.63000000    53.18000000    88.03000000
   N     70.35000000    49.94000000    91.40000000
   C     69.18000000    49.86000000    92.25000000
   C     68.53000000    51.16000000    92.68000000
   O     68.80000000    51.55000000    93.82000000
   C     69.40000000    48.82000000    93.35000000
   H     70.40000000    49.32000000    90.60000000
   H     68.36000000    49.39000000    91.71000000
   H     69.43000000    47.79000000    92.99000000
   H     70.27000000    48.97000000    93.99000000
   H     68.57000000    48.80000000    94.06000000
   N     67.74000000    51.90000000    91.90000000
   C     67.36000000    51.71000000    90.51000000
   C     65.92000000    51.23000000    90.51000000
   O     65.06000000    51.44000000    91.36000000
   C     67.56000000    53.08000000    89.86000000
   H     67.23000000    52.64000000    92.35000000
   H     68.03000000    51.01000000    90.01000000
   H     66.75000000    53.71000000    90.21000000
   H     68.51000000    53.51000000    90.17000000
   H     67.57000000    52.99000000    88.77000000
   N     65.47000000    50.54000000    89.46000000
   C     66.19000000    50.26000000    88.23000000
   C     65.92000000    48.88000000    87.63000000
   O     66.69000000    48.42000000    86.80000000
   C     65.72000000    51.24000000    87.16000000
   C     66.63000000    51.73000000    86.04000000
   C     65.81000000    52.56000000    85.06000000
   O     66.22000000    53.68000000    84.66000000
   O     64.84000000    52.02000000    84.50000000
   H     64.49000000    50.32000000    89.47000000
   H     67.27000000    50.24000000    88.32000000
   H     65.41000000    52.17000000    87.65000000
   H     64.75000000    50.92000000    86.77000000
   H     67.13000000    50.90000000    85.56000000
   H     67.45000000    52.38000000    86.37000000
   N     64.78000000    48.29000000    88.01000000
   C     64.31000000    47.06000000    87.41000000
   H     63.38500000    47.25200000    86.86600000
   H     65.06400000    46.68000000    86.72000000
   H     64.12600000    46.32200000    88.19000000
   H     64.16000000    48.75000000    88.66000000
  Ca     75.82000000    52.95000000    85.12000000
   O     75.56000000    52.62000000    87.76000000
   H     75.34000000    53.19000000    88.50000000
   H     75.07000000    51.82000000    87.93000000
   O     73.82000000    54.40000000    85.89000000
   H     73.05000000    54.45000000    85.32000000
   H     73.63000000    55.02000000    86.60000000
   O     78.24000000    52.52000000    86.35000000
   H     78.89000000    53.21000000    86.48000000
   H     78.35000000    51.94000000    87.11000000

Ca 1.00



