%chk=loop3.apoCaM-CA-Ng.Init295.run68.water4.chk
%nprocshared=20
%mem=10GB
%nosave
#b3lyp/svp scf=(tight,noincore,xqc) Test 
#IOP(5/87=12) Density=Current Pop=(MK,readradii) iop(6/33=2) iop(6/42=6)

loop3.apoCaM-CA-Ng.Init295.run68.water4 

   0  1 
   C     15.80000000   -18.26000000    36.83000000
   C     16.45000000   -19.63000000    36.98000000
   O     16.59000000   -20.11000000    38.11000000
   H     14.84700000   -18.25100000    37.35900000
   H     16.45600000   -17.49800000    37.25100000
   H     15.63100000   -18.05100000    35.77400000
   N     16.89000000   -20.26000000    35.89000000
   C     17.71000000   -21.44000000    35.73000000
   C     19.14000000   -21.05000000    35.37000000
   O     19.36000000   -20.22000000    34.49000000
   C     17.00000000   -22.31000000    34.69000000
   C     17.76000000   -23.61000000    34.47000000
   O     18.94000000   -23.50000000    34.08000000
   O     17.31000000   -24.75000000    34.73000000
   H     17.02000000   -19.61000000    35.12000000
   H     17.70000000   -21.93000000    36.70000000
   H     16.96000000   -21.71000000    33.78000000
   H     15.97000000   -22.56000000    34.96000000
   N     20.09000000   -21.70000000    36.04000000
   C     21.50000000   -21.39000000    36.02000000
   C     22.30000000   -21.50000000    34.73000000
   O     23.43000000   -21.03000000    34.68000000
   C     22.10000000   -22.30000000    37.09000000
   C     22.12000000   -23.80000000    36.82000000
   C     22.85000000   -24.55000000    37.94000000
   C     23.00000000   -26.06000000    37.74000000
   N     23.64000000   -26.78000000    38.85000000
   H     19.83000000   -22.45000000    36.67000000
   H     21.53000000   -20.40000000    36.48000000
   H     21.54000000   -22.03000000    37.99000000
   H     23.13000000   -21.98000000    37.24000000
   H     22.68000000   -23.99000000    35.91000000
   H     21.12000000   -24.20000000    36.67000000
   H     22.23000000   -24.47000000    38.83000000
   H     23.84000000   -24.10000000    37.97000000
   H     23.52000000   -26.20000000    36.79000000
   H     22.03000000   -26.54000000    37.70000000
   H     23.12000000   -26.68000000    39.71000000
   H     23.60000000   -27.78000000    38.68000000
   H     24.62000000   -26.57000000    38.93000000
   N     21.68000000   -22.14000000    33.73000000
   C     22.16000000   -22.25000000    32.37000000
   C     21.08000000   -21.81000000    31.39000000
   O     21.45000000   -21.43000000    30.28000000
   C     22.71000000   -23.66000000    32.15000000
   C     21.65000000   -24.72000000    32.47000000
   O     20.72000000   -24.88000000    31.66000000
   O     21.68000000   -25.40000000    33.52000000
   H     20.80000000   -22.58000000    33.95000000
   H     23.04000000   -21.66000000    32.10000000
   H     23.58000000   -23.81000000    32.78000000
   H     23.03000000   -23.72000000    31.12000000
   N     19.79000000   -21.75000000    31.70000000
   C     18.76000000   -21.27000000    30.79000000
   C     18.06000000   -22.27000000    29.88000000
   O     17.04000000   -22.00000000    29.26000000
   H     19.47000000   -22.00000000    32.62000000
   H     19.27000000   -20.58000000    30.12000000
   H     18.00000000   -20.71000000    31.33000000
   N     18.65000000   -23.47000000    29.84000000
   C     17.96000000   -24.64000000    29.34000000
   C     17.01000000   -25.16000000    30.41000000
   O     17.48000000   -25.38000000    31.52000000
   C     18.92000000   -25.67000000    28.76000000
   C     18.30000000   -27.02000000    28.42000000
   N     17.62000000   -27.19000000    27.28000000
   O     18.30000000   -27.93000000    29.25000000
   H     19.39000000   -23.56000000    30.52000000
   H     17.34000000   -24.25000000    28.53000000
   H     19.68000000   -25.87000000    29.51000000
   H     19.38000000   -25.24000000    27.87000000
   H     17.72000000   -26.42000000    26.63000000
   H     17.20000000   -28.05000000    26.98000000
   N     15.84000000   -25.61000000    29.97000000
   C     14.75000000   -26.04000000    30.82000000
   C     14.52000000   -27.55000000    30.75000000
   O     13.39000000   -27.91000000    31.07000000
   H     15.64000000   -25.44000000    28.99000000
   H     13.89000000   -25.44000000    30.53000000
   H     15.11000000   -25.74000000    31.80000000
   N     15.44000000   -28.39000000    30.28000000
   C     15.23000000   -29.82000000    30.29000000
   C     15.10000000   -30.40000000    31.70000000
   O     15.96000000   -30.20000000    32.55000000
   C     16.45000000   -30.49000000    29.66000000
   C     16.48000000   -31.93000000    29.22000000
   C     17.40000000   -32.82000000    29.78000000
   C     15.51000000   -32.41000000    28.33000000
   C     17.51000000   -34.13000000    29.29000000
   C     15.69000000   -33.66000000    27.72000000
   C     16.67000000   -34.53000000    28.23000000
   O     16.84000000   -35.81000000    27.80000000
   H     16.34000000   -28.04000000    29.98000000
   H     14.31000000   -30.02000000    29.74000000
   H     17.29000000   -30.27000000    30.32000000
   H     16.62000000   -29.97000000    28.71000000
   H     18.13000000   -32.48000000    30.50000000
   H     14.59000000   -31.88000000    28.16000000
   H     18.20000000   -34.81000000    29.76000000
   H     14.97000000   -34.03000000    27.00000000
   H     16.21000000   -35.94000000    27.08000000
   N     14.05000000   -31.16000000    32.00000000
   C     13.71000000   -31.74000000    33.28000000
   C     14.68000000   -32.75000000    33.88000000
   O     15.90000000   -32.62000000    33.93000000
   C     13.12000000   -30.68000000    34.20000000
   C     14.19000000   -30.12000000    35.13000000
   C     11.97000000   -31.25000000    35.03000000
   C     13.66000000   -28.93000000    35.93000000
   H     13.35000000   -31.17000000    31.27000000
   H     12.82000000   -32.34000000    33.13000000
   H     12.76000000   -29.84000000    33.61000000
   H     15.08000000   -29.78000000    34.59000000
   H     14.54000000   -30.83000000    35.87000000
   H     11.16000000   -31.82000000    34.56000000
   H     12.32000000   -31.96000000    35.78000000
   H     11.44000000   -30.41000000    35.48000000
   H     12.95000000   -28.34000000    35.36000000
   H     13.10000000   -29.31000000    36.78000000
   H     14.47000000   -28.24000000    36.17000000
   N     14.12000000   -33.86000000    34.37000000
   C     14.87000000   -34.81000000    35.16000000
   C     14.30000000   -36.23000000    35.20000000
   O     15.09000000   -37.15000000    35.40000000
   C     14.94000000   -34.31000000    36.60000000
   O     13.71000000   -33.91000000    37.15000000
   H     13.11000000   -33.89000000    34.31000000
   H     15.84000000   -34.91000000    34.68000000
   H     15.57000000   -33.42000000    36.51000000
   H     15.53000000   -34.97000000    37.23000000
   H     13.87000000   -33.28000000    37.85000000
   N     12.99000000   -36.39000000    34.96000000
   C     12.25000000   -37.61000000    35.18000000
   C     12.57000000   -38.46000000    36.40000000
   O     12.69000000   -39.67000000    36.23000000
   C     12.33000000   -38.45000000    33.91000000
   H     12.49000000   -35.62000000    34.55000000
   H     11.20000000   -37.34000000    35.24000000
   H     11.55000000   -39.20000000    33.98000000
   H     11.96000000   -37.95000000    33.01000000
   H     13.33000000   -38.83000000    33.69000000
   N     12.78000000   -37.99000000    37.63000000
   C     12.43000000   -36.69000000    38.16000000
   C     10.99000000   -36.61000000    38.65000000
   O     10.51000000   -37.57000000    39.24000000
   C     13.47000000   -36.35000000    39.22000000
   H     13.19000000   -38.63000000    38.30000000
   H     12.58000000   -35.97000000    37.35000000
   H     13.32000000   -37.08000000    40.02000000
   H     14.45000000   -36.62000000    38.83000000
   H     13.35000000   -35.35000000    39.63000000
   N     10.30000000   -35.47000000    38.71000000
   C     10.56000000   -34.13000000    38.21000000
   C      9.48000000   -33.68000000    37.23000000
   O      9.73000000   -33.22000000    36.12000000
   C     10.86000000   -33.18000000    39.36000000
   C     11.07000000   -31.73000000    38.95000000
   C     11.24000000   -30.87000000    40.19000000
   O     10.26000000   -30.65000000    40.93000000
   O     12.35000000   -30.43000000    40.57000000
   H      9.45000000   -35.55000000    39.25000000
   H     11.50000000   -34.13000000    37.67000000
   H     11.81000000   -33.52000000    39.78000000
   H     10.13000000   -33.25000000    40.17000000
   H     10.21000000   -31.41000000    38.37000000
   H     11.93000000   -31.58000000    38.29000000
   N      8.21000000   -33.85000000    37.62000000
   C      6.98000000   -33.47000000    36.96000000
   H      6.23300000   -33.20800000    37.70900000
   H      7.16400000   -32.61100000    36.31500000
   H      6.61600000   -34.30400000    36.36000000
   H      8.00000000   -34.37000000    38.46000000
  Ca     19.22000000   -26.23800000    33.55000000
   O     19.32000000   -28.29800000    31.71000000
   H     19.48000000   -28.25800000    30.76000000
   H     19.02000000   -29.19800000    31.86000000
   O     17.00000000   -27.83800000    33.99000000
   H     16.65000000   -28.72800000    33.90000000
   H     16.23000000   -27.27800000    33.98000000
   O     20.33000000   -28.56800000    34.74000000
   H     19.99000000   -29.44800000    34.53000000
   H     21.17000000   -28.72800000    35.15000000
   O     19.50000000   -25.95800000    36.32000000
   H     19.38000000   -25.29800000    37.00000000
   H     19.88000000   -26.70800000    36.78000000

Ca 1.00



