%chk=loop1.holoCaM.run30.water2.chk
%nprocshared=20
%mem=10GB
%nosave
#b3lyp/svp scf=(tight,noincore,xqc) Test 
#IOP(5/87=12) Density=Current Pop=(MK,readradii) iop(6/33=2) iop(6/42=6)

loop1.holoCaM.run30.water2 

   0  1 
   C     60.48000000    82.43000000   108.37000000
   C     60.34000000    82.59000000   109.87000000
   O     59.19000000    82.62000000   110.31000000
   H     61.53700000    82.37100000   108.10800000
   H     59.97700000    81.51700000   108.05300000
   H     60.02900000    83.28700000   107.86900000
   N     61.42000000    82.78000000   110.63000000
   C     61.32000000    83.16000000   112.03000000
   C     61.36000000    84.68000000   112.01000000
   O     62.30000000    85.35000000   111.57000000
   C     62.44000000    82.54000000   112.86000000
   C     62.62000000    83.17000000   114.23000000
   O     63.59000000    82.67000000   114.83000000
   O     61.77000000    83.91000000   114.78000000
   H     62.32000000    82.91000000   110.20000000
   H     60.39000000    82.90000000   112.52000000
   H     63.31000000    82.68000000   112.22000000
   H     62.24000000    81.48000000   113.03000000
   N     60.18000000    85.25000000   112.24000000
   C     59.93000000    86.64000000   111.92000000
   C     60.29000000    87.66000000   112.99000000
   O     60.17000000    88.86000000   112.73000000
   C     58.50000000    86.73000000   111.38000000
   C     58.33000000    86.06000000   110.02000000
   C     58.51000000    86.99000000   108.82000000
   C     58.91000000    86.17000000   107.60000000
   N     57.75000000    85.44000000   107.06000000
   H     59.40000000    84.69000000   112.57000000
   H     60.56000000    87.02000000   111.12000000
   H     58.25000000    87.77000000   111.18000000
   H     57.76000000    86.43000000   112.12000000
   H     57.36000000    85.58000000   109.91000000
   H     59.02000000    85.22000000   109.88000000
   H     59.22000000    87.81000000   108.95000000
   H     57.53000000    87.45000000   108.68000000
   H     59.69000000    85.53000000   108.01000000
   H     59.30000000    86.83000000   106.82000000
   H     58.07000000    84.81000000   106.34000000
   H     57.26000000    84.89000000   107.75000000
   H     57.23000000    86.17000000   106.59000000
   N     60.64000000    87.16000000   114.17000000
   C     61.01000000    87.98000000   115.31000000
   C     62.31000000    87.54000000   115.97000000
   O     62.88000000    88.32000000   116.73000000
   C     59.85000000    88.03000000   116.29000000
   C     59.24000000    86.69000000   116.66000000
   O     59.88000000    85.63000000   116.49000000
   O     58.04000000    86.67000000   116.99000000
   H     60.47000000    86.16000000   114.26000000
   H     61.18000000    89.00000000   114.98000000
   H     59.09000000    88.61000000   115.76000000
   H     60.09000000    88.56000000   117.21000000
   N     62.98000000    86.45000000   115.58000000
   C     64.30000000    86.06000000   116.02000000
   C     64.30000000    85.34000000   117.36000000
   O     64.75000000    85.91000000   118.35000000
   H     62.40000000    85.85000000   115.01000000
   H     64.95000000    86.92000000   116.23000000
   H     64.73000000    85.38000000   115.29000000
   N     63.70000000    84.15000000   117.45000000
   C     63.78000000    83.29000000   118.61000000
   C     64.23000000    81.86000000   118.34000000
   O     64.19000000    81.06000000   119.27000000
   C     62.42000000    83.31000000   119.30000000
   C     61.28000000    82.84000000   118.42000000
   O     60.13000000    83.21000000   118.76000000
   O     61.38000000    82.06000000   117.45000000
   H     63.48000000    83.73000000   116.56000000
   H     64.58000000    83.76000000   119.19000000
   H     62.22000000    84.33000000   119.62000000
   H     62.35000000    82.65000000   120.17000000
   N     64.58000000    81.48000000   117.11000000
   C     65.06000000    80.17000000   116.73000000
   C     63.96000000    79.16000000   116.43000000
   O     64.23000000    77.96000000   116.42000000
   H     64.29000000    82.06000000   116.34000000
   H     65.73000000    79.78000000   117.49000000
   H     65.55000000    80.28000000   115.76000000
   N     62.73000000    79.65000000   116.29000000
   C     61.55000000    78.88000000   115.97000000
   C     60.54000000    79.58000000   115.06000000
   O     60.46000000    80.79000000   114.92000000
   C     60.84000000    78.34000000   117.20000000
   C     61.75000000    77.65000000   118.21000000
   O     60.24000000    79.41000000   117.89000000
   H     62.66000000    80.66000000   116.36000000
   H     61.94000000    78.06000000   115.37000000
   H     60.00000000    77.72000000   116.89000000
   H     60.74000000    80.19000000   117.65000000
   H     62.49000000    78.37000000   118.56000000
   H     61.19000000    77.39000000   119.11000000
   H     62.33000000    76.81000000   117.82000000
   N     59.70000000    78.74000000   114.45000000
   C     58.57000000    79.25000000   113.70000000
   C     57.30000000    78.83000000   114.42000000
   O     57.22000000    77.64000000   114.73000000
   C     58.50000000    78.75000000   112.26000000
   C     59.80000000    79.01000000   111.51000000
   C     57.43000000    79.46000000   111.43000000
   C     59.93000000    78.19000000   110.22000000
   H     59.76000000    77.73000000   114.53000000
   H     58.62000000    80.34000000   113.67000000
   H     58.43000000    77.66000000   112.35000000
   H     60.72000000    78.95000000   112.09000000
   H     59.82000000    80.02000000   111.11000000
   H     57.63000000    80.53000000   111.39000000
   H     57.22000000    79.00000000   110.47000000
   H     56.49000000    79.34000000   111.97000000
   H     59.99000000    77.16000000   110.58000000
   H     59.09000000    78.25000000   109.53000000
   H     60.90000000    78.38000000   109.76000000
   N     56.42000000    79.74000000   114.84000000
   C     55.13000000    79.54000000   115.47000000
   C     53.93000000    79.66000000   114.55000000
   O     54.06000000    79.89000000   113.35000000
   C     54.90000000    80.58000000   116.56000000
   C     54.56000000    82.02000000   116.15000000
   O     53.89000000    80.20000000   117.48000000
   H     56.77000000    80.64000000   114.56000000
   H     55.05000000    78.58000000   115.99000000
   H     55.81000000    80.61000000   117.16000000
   H     53.53000000    80.97000000   117.93000000
   H     55.08000000    82.22000000   115.22000000
   H     53.51000000    82.01000000   115.87000000
   H     54.84000000    82.77000000   116.89000000
   N     52.72000000    79.43000000   115.06000000
   C     51.50000000    79.38000000   114.27000000
   C     51.31000000    80.57000000   113.34000000
   O     50.88000000    80.50000000   112.19000000
   C     50.29000000    79.27000000   115.19000000
   C     50.12000000    77.90000000   115.86000000
   O     50.28000000    80.26000000   116.19000000
   H     52.68000000    79.32000000   116.06000000
   H     51.50000000    78.51000000   113.61000000
   H     49.40000000    79.43000000   114.58000000
   H     49.45000000    80.18000000   116.66000000
   H     49.36000000    77.91000000   116.64000000
   H     49.80000000    77.21000000   115.08000000
   H     51.08000000    77.53000000   116.22000000
   N     51.60000000    81.73000000   113.94000000
   C     51.48000000    83.02000000   113.30000000
   C     52.45000000    83.15000000   112.13000000
   O     52.05000000    83.88000000   111.22000000
   C     51.67000000    84.20000000   114.24000000
   C     51.04000000    84.15000000   115.63000000
   C     49.51000000    84.14000000   115.54000000
   C     48.84000000    83.98000000   116.90000000
   N     47.42000000    84.34000000   117.04000000
   H     52.01000000    81.66000000   114.86000000
   H     50.49000000    83.11000000   112.85000000
   H     51.29000000    85.01000000   113.62000000
   H     52.72000000    84.37000000   114.47000000
   H     51.26000000    85.01000000   116.26000000
   H     51.45000000    83.27000000   116.13000000
   H     49.20000000    83.28000000   114.96000000
   H     49.10000000    85.05000000   115.09000000
   H     49.46000000    84.66000000   117.49000000
   H     48.93000000    82.98000000   117.31000000
   H     47.25000000    85.28000000   116.71000000
   H     46.79000000    83.86000000   116.42000000
   H     47.11000000    84.25000000   118.00000000
   N     53.65000000    82.56000000   112.14000000
   C     54.66000000    82.60000000   111.10000000
   C     54.43000000    81.48000000   110.10000000
   O     54.46000000    81.76000000   108.90000000
   C     56.03000000    82.64000000   111.77000000
   C     56.32000000    83.82000000   112.69000000
   C     57.49000000    83.57000000   113.62000000
   O     57.77000000    82.43000000   114.07000000
   O     58.25000000    84.49000000   114.00000000
   H     53.77000000    81.89000000   112.88000000
   H     54.49000000    83.54000000   110.57000000
   H     56.80000000    82.64000000   111.00000000
   H     56.24000000    81.74000000   112.35000000
   H     55.44000000    84.02000000   113.31000000
   H     56.46000000    84.72000000   112.10000000
   N     53.95000000    80.31000000   110.53000000
   C     53.68000000    79.22000000   109.61000000
   H     52.83400000    79.48300000   108.97400000
   H     54.55800000    79.04100000   108.99000000
   H     53.44300000    78.31800000   110.17400000
   H     53.71000000    80.17000000   111.50000000
  Ca     59.58000000    83.16000000   115.87400000
   O     58.17000000    81.28000000   116.99400000
   H     58.53000000    80.41000000   117.08400000
   H     57.91000000    81.53000000   117.88400000
   O     57.17000000    84.26000000   116.86400000
   H     56.57000000    84.20000000   117.61400000
   H     57.52000000    85.15000000   116.91400000

Ca 1.00



