%chk=loop4.holoCaM-CaMKII.run8.water2.chk
%nprocshared=20
%mem=10GB
%nosave
#b3lyp/svp scf=(tight,noincore,xqc) Test 
#IOP(5/87=12) Density=Current Pop=(MK,readradii) iop(6/33=2) iop(6/42=6)

loop4.holoCaM-CaMKII.run8.water2 

   -3  1 
   C     81.88000000    51.45000000    36.18000000
   C     81.39000000    50.15000000    36.81000000
   O     80.28000000    50.10000000    37.31000000
   H     82.87400000    51.29700000    35.75900000
   H     81.19400000    51.75200000    35.38900000
   H     81.92400000    52.22900000    36.94100000
   N     82.17000000    49.06000000    36.78000000
   C     81.89000000    47.76000000    37.34000000
   C     81.87000000    47.73000000    38.86000000
   O     82.90000000    48.07000000    39.43000000
   C     82.87000000    46.81000000    36.66000000
   C     82.75000000    45.38000000    37.16000000
   O     81.61000000    45.05000000    37.56000000
   O     83.73000000    44.62000000    37.00000000
   H     83.07000000    49.24000000    36.36000000
   H     80.88000000    47.47000000    37.06000000
   H     83.85000000    47.23000000    36.85000000
   H     82.77000000    46.68000000    35.58000000
   N     80.77000000    47.27000000    39.47000000
   C     80.50000000    47.33000000    40.90000000
   C     80.67000000    45.95000000    41.51000000
   O     81.36000000    45.79000000    42.52000000
   C     79.11000000    47.87000000    41.23000000
   C     78.79000000    49.26000000    40.67000000
   C     78.82000000    47.88000000    42.73000000
   C     79.50000000    50.45000000    41.31000000
   H     79.97000000    47.05000000    38.90000000
   H     81.25000000    47.95000000    41.39000000
   H     78.34000000    47.22000000    40.82000000
   H     77.73000000    49.38000000    40.88000000
   H     78.82000000    49.33000000    39.58000000
   H     78.05000000    48.59000000    43.02000000
   H     78.54000000    46.89000000    43.10000000
   H     79.75000000    48.18000000    43.22000000
   H     79.45000000    50.37000000    42.39000000
   H     80.54000000    50.63000000    41.05000000
   H     78.92000000    51.31000000    40.98000000
   N     80.17000000    44.90000000    40.86000000
   C     80.18000000    43.50000000    41.24000000
   C     81.39000000    42.70000000    40.80000000
   O     81.71000000    41.70000000    41.43000000
   C     78.89000000    42.77000000    40.90000000
   C     78.40000000    43.04000000    39.49000000
   O     77.21000000    42.88000000    39.12000000
   O     79.27000000    43.32000000    38.64000000
   H     79.88000000    45.04000000    39.90000000
   H     80.28000000    43.40000000    42.32000000
   H     78.16000000    43.14000000    41.62000000
   H     78.93000000    41.69000000    41.07000000
   N     82.21000000    43.17000000    39.85000000
   C     83.54000000    42.65000000    39.61000000
   C     83.64000000    41.50000000    38.61000000
   O     84.18000000    40.46000000    38.99000000
   H     81.87000000    43.98000000    39.34000000
   H     84.00000000    42.27000000    40.52000000
   H     84.15000000    43.47000000    39.21000000
   N     83.14000000    41.73000000    37.40000000
   C     83.03000000    40.79000000    36.30000000
   C     83.72000000    41.26000000    35.03000000
   O     83.86000000    40.48000000    34.09000000
   C     81.54000000    40.51000000    36.14000000
   C     80.61000000    41.65000000    35.73000000
   O     81.14000000    42.72000000    35.38000000
   O     79.38000000    41.62000000    35.93000000
   H     82.91000000    42.67000000    37.12000000
   H     83.53000000    39.85000000    36.51000000
   H     81.23000000    40.23000000    37.14000000
   H     81.36000000    39.65000000    35.49000000
   N     84.11000000    42.54000000    35.02000000
   C     84.75000000    43.20000000    33.90000000
   C     83.85000000    43.67000000    32.76000000
   O     84.35000000    43.85000000    31.65000000
   H     83.83000000    43.22000000    35.71000000
   H     85.43000000    42.48000000    33.44000000
   H     85.28000000    44.10000000    34.21000000
   N     82.55000000    43.78000000    33.05000000
   C     81.64000000    44.45000000    32.13000000
   C     80.66000000    45.34000000    32.89000000
   O     80.60000000    45.29000000    34.11000000
   C     80.82000000    43.45000000    31.32000000
   C     81.64000000    42.77000000    30.23000000
   C     80.76000000    41.86000000    29.37000000
   N     80.89000000    40.55000000    29.58000000
   O     80.03000000    42.26000000    28.47000000
   H     82.29000000    43.63000000    34.01000000
   H     82.10000000    45.18000000    31.47000000
   H     80.04000000    43.94000000    30.75000000
   H     80.32000000    42.71000000    31.95000000
   H     82.48000000    42.26000000    30.70000000
   H     82.16000000    43.47000000    29.58000000
   H     81.62000000    40.19000000    30.18000000
   H     80.29000000    39.86000000    29.15000000
   N     79.90000000    46.17000000    32.18000000
   C     78.93000000    47.10000000    32.72000000
   C     77.52000000    46.71000000    32.31000000
   O     77.23000000    46.64000000    31.12000000
   C     79.21000000    48.54000000    32.28000000
   C     78.31000000    49.63000000    32.86000000
   C     80.64000000    48.90000000    32.64000000
   H     79.92000000    46.02000000    31.19000000
   H     78.97000000    47.06000000    33.81000000
   H     79.14000000    48.52000000    31.19000000
   H     77.33000000    49.44000000    32.42000000
   H     78.39000000    49.46000000    33.93000000
   H     78.69000000    50.60000000    32.55000000
   H     81.35000000    48.16000000    32.27000000
   H     80.98000000    49.89000000    32.34000000
   H     80.69000000    48.82000000    33.73000000
   N     76.59000000    46.43000000    33.23000000
   C     75.19000000    46.23000000    32.90000000
   C     74.35000000    47.47000000    33.14000000
   O     74.80000000    48.37000000    33.85000000
   C     74.63000000    45.07000000    33.72000000
   C     73.11000000    45.03000000    33.64000000
   N     72.50000000    44.56000000    32.54000000
   O     72.39000000    45.47000000    34.53000000
   H     76.90000000    46.50000000    34.19000000
   H     75.01000000    45.85000000    31.89000000
   H     74.86000000    45.32000000    34.76000000
   H     75.09000000    44.16000000    33.34000000
   H     73.12000000    44.21000000    31.83000000
   H     71.50000000    44.64000000    32.40000000
   N     73.19000000    47.64000000    32.50000000
   C     72.36000000    48.83000000    32.53000000
   C     72.04000000    49.36000000    33.92000000
   O     72.15000000    50.55000000    34.22000000
   C     71.07000000    48.60000000    31.74000000
   C     70.05000000    49.71000000    31.72000000
   C     70.37000000    50.97000000    31.19000000
   C     68.86000000    49.55000000    32.44000000
   C     69.52000000    52.07000000    31.24000000
   C     68.00000000    50.66000000    32.45000000
   C     68.28000000    51.92000000    31.89000000
   O     67.40000000    52.96000000    31.81000000
   H     72.98000000    46.99000000    31.76000000
   H     72.89000000    49.69000000    32.11000000
   H     70.62000000    47.69000000    32.14000000
   H     71.40000000    48.53000000    30.71000000
   H     71.33000000    51.02000000    30.70000000
   H     68.64000000    48.62000000    32.95000000
   H     69.73000000    53.06000000    30.86000000
   H     67.04000000    50.61000000    32.93000000
   H     66.55000000    52.84000000    32.23000000
   N     71.79000000    48.44000000    34.85000000
   C     71.79000000    48.70000000    36.27000000
   C     72.98000000    49.49000000    36.79000000
   O     72.82000000    50.33000000    37.68000000
   C     71.58000000    47.37000000    36.97000000
   C     71.09000000    47.73000000    38.38000000
   C     70.38000000    46.60000000    39.11000000
   O     69.27000000    46.73000000    39.67000000
   O     70.93000000    45.48000000    39.18000000
   H     71.78000000    47.49000000    34.52000000
   H     70.96000000    49.38000000    36.49000000
   H     72.47000000    46.75000000    36.89000000
   H     70.86000000    46.74000000    36.45000000
   H     70.24000000    48.41000000    38.34000000
   H     71.94000000    47.95000000    39.02000000
   N     74.22000000    49.26000000    36.35000000
   C     75.44000000    49.94000000    36.70000000
   C     75.63000000    51.23000000    35.91000000
   O     76.12000000    52.21000000    36.47000000
   C     76.66000000    49.07000000    36.41000000
   C     76.81000000    47.99000000    37.48000000
   C     77.75000000    46.85000000    37.10000000
   O     78.53000000    46.38000000    37.96000000
   O     77.74000000    46.48000000    35.91000000
   H     74.38000000    48.64000000    35.57000000
   H     75.59000000    50.16000000    37.76000000
   H     77.57000000    49.66000000    36.38000000
   H     76.54000000    48.60000000    35.44000000
   H     75.87000000    47.52000000    37.78000000
   H     77.19000000    48.45000000    38.39000000
   N     75.02000000    51.31000000    34.73000000
   C     74.93000000    52.54000000    33.96000000
   H     74.30600000    53.25700000    34.49400000
   H     75.92700000    52.95800000    33.82400000
   H     74.48800000    52.32800000    32.98600000
   H     74.46000000    50.51000000    34.47000000
  Ca     79.37000000    44.30000000    36.37000000
   O     76.75000000    43.72000000    36.46000000
   H     76.39000000    43.33000000    35.66000000
   H     76.57000000    43.07000000    37.14000000
   O     78.63000000    43.21000000    34.07000000
   H     78.69000000    42.47000000    34.68000000
   H     78.72000000    42.82000000    33.20000000

Ca 1.00



