%chk=loop1.apoCaM-CA-Ng.Init293.run96.water6.chk
%nprocshared=20
%mem=10GB
%nosave
#b3lyp/svp scf=(tight,noincore,xqc) Test 
#IOP(5/87=12) Density=Current Pop=(MK,readradii) iop(6/33=2) iop(6/42=6)

loop1.apoCaM-CA-Ng.Init293.run96.water6 

   0  1 
   C     72.99000000   113.78000000    32.04000000
   C     72.65000000   115.26000000    31.91000000
   O     72.31000000   115.68000000    30.81000000
   H     73.92900000   113.67000000    32.58200000
   H     72.19500000   113.27000000    32.58500000
   H     73.09000000   113.34100000    31.04700000
   N     72.86000000   116.08000000    32.95000000
   C     72.67000000   117.51000000    33.05000000
   C     73.86000000   118.30000000    32.51000000
   O     73.75000000   119.52000000    32.41000000
   C     72.33000000   117.88000000    34.49000000
   C     73.49000000   117.60000000    35.43000000
   O     74.00000000   118.55000000    36.05000000
   O     73.87000000   116.43000000    35.63000000
   H     73.27000000   115.64000000    33.76000000
   H     71.81000000   117.70000000    32.41000000
   H     71.47000000   117.26000000    34.77000000
   H     72.15000000   118.95000000    34.54000000
   N     74.99000000   117.68000000    32.17000000
   C     76.17000000   118.37000000    31.68000000
   C     76.23000000   118.45000000    30.16000000
   O     75.80000000   117.54000000    29.46000000
   C     77.45000000   117.70000000    32.19000000
   C     77.47000000   117.24000000    33.64000000
   C     77.23000000   118.36000000    34.65000000
   C     77.39000000   117.96000000    36.11000000
   N     76.36000000   117.06000000    36.64000000
   H     75.05000000   116.68000000    32.07000000
   H     76.08000000   119.41000000    31.98000000
   H     78.28000000   118.38000000    32.02000000
   H     77.57000000   116.77000000    31.65000000
   H     78.43000000   116.77000000    33.87000000
   H     76.66000000   116.52000000    33.74000000
   H     76.27000000   118.86000000    34.50000000
   H     78.08000000   119.00000000    34.40000000
   H     77.35000000   118.93000000    36.60000000
   H     78.37000000   117.51000000    36.27000000
   H     76.57000000   116.80000000    37.60000000
   H     75.39000000   117.32000000    36.57000000
   H     76.28000000   116.22000000    36.07000000
   N     76.70000000   119.52000000    29.52000000
   C     77.13000000   120.82000000    30.02000000
   C     76.15000000   121.96000000    29.83000000
   O     76.58000000   123.09000000    30.05000000
   C     78.49000000   121.24000000    29.45000000
   C     79.48000000   120.09000000    29.53000000
   O     80.02000000   119.86000000    30.63000000
   O     79.71000000   119.44000000    28.49000000
   H     76.71000000   119.45000000    28.52000000
   H     77.34000000   120.77000000    31.09000000
   H     78.97000000   122.06000000    30.00000000
   H     78.40000000   121.53000000    28.41000000
   N     74.85000000   121.82000000    29.56000000
   C     74.01000000   120.69000000    29.21000000
   C     72.71000000   121.23000000    28.65000000
   O     72.40000000   122.42000000    28.70000000
   H     74.27000000   122.64000000    29.65000000
   H     73.83000000   120.10000000    30.11000000
   H     74.51000000   120.09000000    28.45000000
   N     71.66000000   120.46000000    28.33000000
   C     71.62000000   119.01000000    28.32000000
   C     70.27000000   118.52000000    28.82000000
   O     69.24000000   118.95000000    28.30000000
   C     72.05000000   118.48000000    26.95000000
   C     73.39000000   118.94000000    26.41000000
   O     74.44000000   118.38000000    26.79000000
   O     73.41000000   119.96000000    25.68000000
   H     70.88000000   120.96000000    27.96000000
   H     72.32000000   118.57000000    29.03000000
   H     71.31000000   118.68000000    26.17000000
   H     72.06000000   117.39000000    26.99000000
   N     70.35000000   117.60000000    29.78000000
   C     69.25000000   116.96000000    30.48000000
   C     68.71000000   115.74000000    29.73000000
   O     67.80000000   115.05000000    30.17000000
   H     71.28000000   117.42000000    30.13000000
   H     68.47000000   117.71000000    30.47000000
   H     69.52000000   116.60000000    31.47000000
   N     69.34000000   115.38000000    28.61000000
   C     69.13000000   114.29000000    27.69000000
   C     70.40000000   113.52000000    27.33000000
   O     71.51000000   113.96000000    27.65000000
   C     68.51000000   114.79000000    26.39000000
   C     69.20000000   116.02000000    25.81000000
   O     67.16000000   115.12000000    26.64000000
   H     70.01000000   116.08000000    28.30000000
   H     68.47000000   113.54000000    28.12000000
   H     68.53000000   114.01000000    25.63000000
   H     66.77000000   115.46000000    25.84000000
   H     69.17000000   115.88000000    24.73000000
   H     68.60000000   116.87000000    26.14000000
   H     70.27000000   116.01000000    26.04000000
   N     70.27000000   112.41000000    26.60000000
   C     71.40000000   111.57000000    26.27000000
   C     71.11000000   110.88000000    24.94000000
   O     70.17000000   110.10000000    24.98000000
   C     71.90000000   110.71000000    27.43000000
   C     72.99000000   109.67000000    27.19000000
   C     70.73000000   110.07000000    28.19000000
   C     74.29000000   110.41000000    26.90000000
   H     69.35000000   112.12000000    26.33000000
   H     72.22000000   112.28000000    26.10000000
   H     72.34000000   111.40000000    28.15000000
   H     72.91000000   109.02000000    26.32000000
   H     73.20000000   109.05000000    28.05000000
   H     69.99000000   110.78000000    28.56000000
   H     70.32000000   109.34000000    27.50000000
   H     71.10000000   109.56000000    29.08000000
   H     75.21000000   109.84000000    27.09000000
   H     74.30000000   110.65000000    25.83000000
   H     74.39000000   111.33000000    27.47000000
   N     71.92000000   111.06000000    23.89000000
   C     72.00000000   110.22000000    22.72000000
   C     73.37000000   109.67000000    22.36000000
   O     73.55000000   108.99000000    21.35000000
   C     71.41000000   110.85000000    21.46000000
   C     72.03000000   112.11000000    20.87000000
   O     70.16000000   111.37000000    21.86000000
   H     72.58000000   111.82000000    23.87000000
   H     71.44000000   109.31000000    22.91000000
   H     71.25000000   110.09000000    20.69000000
   H     69.65000000   111.26000000    21.05000000
   H     72.94000000   111.76000000    20.37000000
   H     71.38000000   112.58000000    20.14000000
   H     72.31000000   112.84000000    21.63000000
   N     74.41000000   110.00000000    23.13000000
   C     75.81000000   109.79000000    22.83000000
   C     76.29000000   110.60000000    21.63000000
   O     75.52000000   111.17000000    20.86000000
   C     76.13000000   108.30000000    22.74000000
   C     75.73000000   107.58000000    24.02000000
   O     77.54000000   108.23000000    22.64000000
   H     74.32000000   110.75000000    23.80000000
   H     76.40000000   110.19000000    23.64000000
   H     75.59000000   107.86000000    21.90000000
   H     77.77000000   107.32000000    22.42000000
   H     75.59000000   108.24000000    24.87000000
   H     74.77000000   107.05000000    23.99000000
   H     76.45000000   106.78000000    24.20000000
   N     77.60000000   110.62000000    21.38000000
   C     78.32000000   111.17000000    20.24000000
   C     79.49000000   112.12000000    20.44000000
   O     80.16000000   112.30000000    19.42000000
   C     78.56000000   110.11000000    19.18000000
   C     79.71000000   109.14000000    19.45000000
   C     79.84000000   108.17000000    18.28000000
   C     80.97000000   107.20000000    18.59000000
   N     81.42000000   106.40000000    17.44000000
   H     78.12000000   110.10000000    22.07000000
   H     77.65000000   111.90000000    19.80000000
   H     78.79000000   110.61000000    18.24000000
   H     77.58000000   109.65000000    19.02000000
   H     79.55000000   108.69000000    20.43000000
   H     80.60000000   109.76000000    19.42000000
   H     80.12000000   108.69000000    17.36000000
   H     78.95000000   107.57000000    18.12000000
   H     80.57000000   106.47000000    19.29000000
   H     81.88000000   107.69000000    18.95000000
   H     82.02000000   106.96000000    16.85000000
   H     81.95000000   105.56000000    17.65000000
   H     80.66000000   106.11000000    16.84000000
   N     80.02000000   112.61000000    21.56000000
   C     79.86000000   112.26000000    22.96000000
   C     80.17000000   110.80000000    23.27000000
   O     79.38000000   110.21000000    24.00000000
   C     78.59000000   112.84000000    23.58000000
   C     78.83000000   113.24000000    25.03000000
   C     77.51000000   113.65000000    25.68000000
   O     77.60000000   114.47000000    26.62000000
   O     76.35000000   113.29000000    25.38000000
   H     80.72000000   113.32000000    21.44000000
   H     80.67000000   112.78000000    23.46000000
   H     77.84000000   112.05000000    23.58000000
   H     78.16000000   113.74000000    23.13000000
   H     79.48000000   114.12000000    25.06000000
   H     79.22000000   112.45000000    25.67000000
   N     81.23000000   110.16000000    22.78000000
   C     81.62000000   108.81000000    23.12000000
   H     82.55200000   108.83300000    23.68400000
   H     80.84100000   108.34800000    23.72600000
   H     81.76200000   108.23200000    22.20700000
   H     81.79000000   110.69000000    22.11000000
  Ca     75.79000000   116.19700000    27.17000000
   O     73.40000000   115.86700000    28.51000000
   H     73.17000000   116.00700000    29.43000000
   H     72.67000000   115.35700000    28.16000000
   O     76.94000000   114.99700000    29.43000000
   H     76.51000000   115.21700000    30.25000000
   H     77.73000000   114.51700000    29.70000000
   O     74.96000000   113.59700000    27.36000000
   H     74.30000000   112.90700000    27.41000000
   H     75.63000000   113.23700000    26.78000000
   O     76.57000000   117.06700000    24.72000000
   H     77.45000000   116.75700000    24.49000000
   H     76.29000000   117.57700000    23.96000000
   O     73.95000000   115.65700000    25.41000000
   H     73.14000000   115.14700000    25.33000000
   H     73.94000000   116.23700000    24.65000000
   O     78.11000000   117.27700000    27.55000000
   H     78.87000000   116.70700000    27.40000000
   H     78.49000000   118.10700000    27.83000000

Ca 1.00



