%chk=loop4.holoCaM-CaMKII.run29.water1.chk
%nprocshared=20
%mem=10GB
%nosave
#b3lyp/svp scf=(tight,noincore,xqc) Test 
#IOP(5/87=12) Density=Current Pop=(MK,readradii) iop(6/33=2) iop(6/42=6)

loop4.holoCaM-CaMKII.run29.water1 

   -3  1 
   C     90.41000000    53.78000000    37.20000000
   C     89.98000000    53.97000000    38.65000000
   O     88.91000000    54.51000000    38.94000000
   H     91.44100000    53.42800000    37.17100000
   H     89.76200000    53.04600000    36.72100000
   H     90.33600000    54.73000000    36.67100000
   N     90.64000000    53.26000000    39.57000000
   C     90.38000000    53.20000000    40.99000000
   C     90.86000000    54.42000000    41.78000000
   O     92.01000000    54.50000000    42.19000000
   C     91.05000000    51.89000000    41.38000000
   C     90.91000000    51.58000000    42.87000000
   O     89.97000000    52.10000000    43.49000000
   O     91.78000000    50.89000000    43.43000000
   H     91.21000000    52.53000000    39.17000000
   H     89.32000000    52.97000000    41.07000000
   H     92.12000000    51.90000000    41.20000000
   H     90.63000000    51.06000000    40.81000000
   N     89.97000000    55.38000000    42.01000000
   C     90.33000000    56.57000000    42.76000000
   C     90.44000000    56.36000000    44.26000000
   O     91.34000000    56.94000000    44.87000000
   C     89.31000000    57.62000000    42.33000000
   C     89.12000000    57.83000000    40.83000000
   C     89.53000000    58.95000000    43.05000000
   C     90.40000000    58.34000000    40.17000000
   H     89.01000000    55.15000000    41.79000000
   H     91.32000000    56.84000000    42.39000000
   H     88.35000000    57.19000000    42.64000000
   H     88.39000000    58.62000000    40.62000000
   H     88.91000000    56.88000000    40.33000000
   H     89.02000000    59.07000000    44.00000000
   H     90.60000000    59.02000000    43.28000000
   H     89.25000000    59.73000000    42.34000000
   H     90.55000000    59.40000000    40.35000000
   H     91.20000000    57.71000000    40.55000000
   H     90.41000000    58.08000000    39.11000000
   N     89.75000000    55.52000000    45.04000000
   C     89.97000000    55.36000000    46.46000000
   C     91.09000000    54.38000000    46.77000000
   O     91.84000000    54.53000000    47.74000000
   C     88.67000000    55.02000000    47.18000000
   C     87.94000000    53.92000000    46.42000000
   O     86.99000000    54.22000000    45.67000000
   O     88.39000000    52.76000000    46.50000000
   H     88.93000000    55.15000000    44.58000000
   H     90.36000000    56.27000000    46.93000000
   H     88.07000000    55.93000000    47.18000000
   H     88.83000000    54.77000000    48.22000000
   N     91.22000000    53.32000000    45.96000000
   C     92.28000000    52.35000000    46.16000000
   C     91.88000000    50.96000000    46.63000000
   O     92.72000000    50.06000000    46.60000000
   H     90.67000000    53.22000000    45.12000000
   H     92.97000000    52.67000000    46.94000000
   H     92.83000000    52.24000000    45.22000000
   N     90.58000000    50.77000000    46.84000000
   C     90.02000000    49.47000000    47.15000000
   C     90.18000000    48.35000000    46.13000000
   O     89.78000000    47.23000000    46.44000000
   C     88.57000000    49.63000000    47.58000000
   C     87.49000000    49.64000000    46.51000000
   O     86.35000000    49.20000000    46.78000000
   O     87.86000000    49.94000000    45.36000000
   H     90.00000000    51.59000000    46.70000000
   H     90.53000000    49.09000000    48.04000000
   H     88.48000000    50.55000000    48.16000000
   H     88.44000000    48.82000000    48.30000000
   N     90.66000000    48.64000000    44.92000000
   C     90.97000000    47.59000000    43.98000000
   C     89.84000000    47.28000000    43.00000000
   O     89.98000000    46.44000000    42.12000000
   H     91.05000000    49.53000000    44.62000000
   H     91.23000000    46.65000000    44.48000000
   H     91.88000000    47.84000000    43.42000000
   N     88.77000000    48.07000000    43.14000000
   C     87.58000000    48.01000000    42.32000000
   C     87.06000000    49.37000000    41.89000000
   O     87.50000000    50.42000000    42.34000000
   C     86.43000000    47.28000000    43.01000000
   C     86.56000000    45.77000000    43.12000000
   C     85.29000000    45.21000000    43.76000000
   N     85.22000000    45.29000000    45.09000000
   O     84.44000000    44.64000000    43.08000000
   H     88.73000000    48.71000000    43.92000000
   H     87.79000000    47.59000000    41.34000000
   H     85.48000000    47.45000000    42.50000000
   H     86.21000000    47.63000000    44.02000000
   H     87.42000000    45.46000000    43.71000000
   H     86.59000000    45.27000000    42.15000000
   H     85.99000000    45.69000000    45.60000000
   H     84.50000000    44.79000000    45.61000000
   N     86.24000000    49.38000000    40.83000000
   C     85.80000000    50.53000000    40.07000000
   C     84.28000000    50.54000000    40.03000000
   O     83.65000000    49.77000000    39.30000000
   C     86.40000000    50.48000000    38.67000000
   C     86.18000000    51.81000000    37.95000000
   C     87.92000000    50.28000000    38.70000000
   H     85.87000000    48.51000000    40.47000000
   H     86.00000000    51.48000000    40.57000000
   H     86.10000000    49.62000000    38.06000000
   H     86.43000000    52.69000000    38.55000000
   H     86.66000000    51.79000000    36.98000000
   H     85.11000000    51.90000000    37.80000000
   H     88.32000000    51.06000000    39.34000000
   H     88.14000000    49.30000000    39.11000000
   H     88.18000000    50.29000000    37.64000000
   N     83.73000000    51.62000000    40.59000000
   C     82.32000000    51.90000000    40.73000000
   C     81.78000000    52.80000000    39.62000000
   O     82.60000000    53.45000000    38.98000000
   C     81.97000000    52.42000000    42.12000000
   C     81.77000000    53.90000000    42.38000000
   N     82.89000000    54.58000000    42.64000000
   O     80.65000000    54.38000000    42.25000000
   H     84.41000000    52.23000000    41.01000000
   H     81.80000000    50.95000000    40.67000000
   H     82.76000000    52.02000000    42.76000000
   H     81.04000000    51.95000000    42.44000000
   H     83.77000000    54.09000000    42.65000000
   H     82.83000000    55.59000000    42.69000000
   N     80.46000000    52.84000000    39.40000000
   C     79.96000000    53.65000000    38.31000000
   C     80.39000000    55.11000000    38.36000000
   O     80.73000000    55.68000000    37.32000000
   C     78.44000000    53.57000000    38.35000000
   C     77.75000000    54.31000000    37.23000000
   C     77.92000000    53.88000000    35.91000000
   C     76.95000000    55.43000000    37.52000000
   C     77.36000000    54.61000000    34.85000000
   C     76.43000000    56.19000000    36.47000000
   C     76.56000000    55.73000000    35.14000000
   O     75.89000000    56.36000000    34.14000000
   H     79.78000000    52.29000000    39.90000000
   H     80.26000000    53.22000000    37.35000000
   H     78.06000000    54.05000000    39.25000000
   H     78.18000000    52.51000000    38.31000000
   H     78.58000000    53.08000000    35.64000000
   H     76.77000000    55.80000000    38.51000000
   H     77.46000000    54.40000000    33.79000000
   H     75.73000000    56.97000000    36.76000000
   H     75.70000000    57.21000000    34.53000000
   N     80.55000000    55.65000000    39.56000000
   C     81.00000000    57.01000000    39.83000000
   C     82.40000000    57.23000000    39.29000000
   O     82.66000000    58.24000000    38.64000000
   C     80.84000000    57.46000000    41.28000000
   C     80.93000000    58.97000000    41.50000000
   C     80.60000000    59.19000000    42.97000000
   O     79.42000000    59.32000000    43.37000000
   O     81.53000000    59.31000000    43.79000000
   H     80.16000000    55.09000000    40.31000000
   H     80.32000000    57.61000000    39.22000000
   H     81.57000000    56.94000000    41.89000000
   H     79.82000000    57.17000000    41.53000000
   H     80.15000000    59.43000000    40.90000000
   H     81.94000000    59.23000000    41.18000000
   N     83.26000000    56.27000000    39.66000000
   C     84.66000000    56.26000000    39.32000000
   C     84.78000000    56.04000000    37.82000000
   O     85.66000000    56.54000000    37.12000000
   C     85.53000000    55.24000000    40.05000000
   C     85.71000000    55.59000000    41.53000000
   C     86.18000000    54.35000000    42.28000000
   O     87.38000000    54.31000000    42.62000000
   O     85.42000000    53.37000000    42.46000000
   H     82.82000000    55.46000000    40.06000000
   H     85.04000000    57.26000000    39.55000000
   H     86.53000000    55.28000000    39.62000000
   H     85.18000000    54.21000000    39.97000000
   H     84.73000000    55.87000000    41.92000000
   H     86.36000000    56.45000000    41.70000000
   N     83.80000000    55.35000000    37.22000000
   C     83.84000000    54.98000000    35.82000000
   H     84.74000000    55.39100000    35.36200000
   H     83.85100000    53.89400000    35.73100000
   H     82.96100000    55.37800000    35.31300000
   H     83.13000000    54.83000000    37.76000000
  Ca     87.49000000    52.20000000    44.13000000
   O     85.25000000    50.45000000    44.70000000
   H     85.65000000    49.98000000    45.43000000
   H     84.34000000    50.18000000    44.71000000

Ca 1.00



