%chk=loop1.apoCaM-CA-Ng.Init293.run83.water5.chk
%nprocshared=20
%mem=10GB
%nosave
#b3lyp/svp scf=(tight,noincore,xqc) Test 
#IOP(5/87=12) Density=Current Pop=(MK,readradii) iop(6/33=2) iop(6/42=6)

loop1.apoCaM-CA-Ng.Init293.run83.water5 

   0  1 
   C     79.85000000    96.57000000    21.58000000
   C     80.93000000    97.08000000    20.64000000
   O     80.89000000    96.84000000    19.43000000
   H     78.93700000    96.38000000    21.01500000
   H     80.18400000    95.64500000    22.05100000
   H     79.65300000    97.31800000    22.34800000
   N     81.85000000    97.86000000    21.19000000
   C     82.86000000    98.63000000    20.48000000
   C     84.05000000    97.78000000    20.08000000
   O     84.84000000    98.11000000    19.19000000
   C     83.29000000    99.81000000    21.35000000
   C     83.82000000    99.41000000    22.73000000
   O     85.04000000    99.61000000    22.93000000
   O     83.01000000    99.12000000    23.63000000
   H     81.73000000    98.06000000    22.17000000
   H     82.46000000    99.07000000    19.57000000
   H     82.45000000   100.49000000    21.47000000
   H     83.99000000   100.36000000    20.73000000
   N     84.22000000    96.61000000    20.69000000
   C     85.49000000    95.92000000    20.67000000
   C     85.58000000    95.01000000    19.45000000
   O     84.65000000    94.30000000    19.09000000
   C     85.52000000    95.00000000    21.88000000
   C     85.35000000    95.63000000    23.26000000
   C     86.38000000    96.73000000    23.50000000
   C     86.42000000    97.30000000    24.92000000
   N     85.28000000    98.18000000    25.21000000
   H     83.42000000    96.13000000    21.09000000
   H     86.40000000    96.52000000    20.70000000
   H     86.50000000    94.53000000    21.93000000
   H     84.79000000    94.19000000    21.87000000
   H     85.47000000    94.91000000    24.07000000
   H     84.34000000    95.96000000    23.49000000
   H     86.30000000    97.54000000    22.78000000
   H     87.33000000    96.21000000    23.32000000
   H     87.23000000    98.03000000    24.88000000
   H     86.52000000    96.55000000    25.70000000
   H     84.41000000    97.66000000    25.26000000
   H     85.36000000    98.63000000    26.11000000
   H     85.18000000    98.89000000    24.49000000
   N     86.65000000    95.06000000    18.64000000
   C     87.84000000    95.89000000    18.68000000
   C     88.47000000    96.06000000    17.31000000
   O     89.55000000    95.57000000    17.00000000
   C     88.81000000    95.25000000    19.67000000
   C     90.11000000    96.02000000    19.85000000
   O     91.09000000    95.39000000    20.30000000
   O     90.16000000    97.23000000    19.54000000
   H     86.58000000    94.35000000    17.94000000
   H     87.56000000    96.90000000    18.99000000
   H     89.07000000    94.24000000    19.36000000
   H     88.36000000    95.24000000    20.66000000
   N     87.84000000    96.73000000    16.34000000
   C     86.58000000    97.41000000    16.52000000
   C     85.98000000    97.86000000    15.19000000
   O     86.63000000    98.27000000    14.23000000
   H     88.33000000    96.69000000    15.46000000
   H     86.90000000    98.20000000    17.20000000
   H     85.87000000    96.80000000    17.08000000
   N     84.65000000    97.84000000    15.04000000
   C     83.53000000    97.51000000    15.89000000
   C     82.58000000    98.70000000    16.02000000
   O     82.43000000    99.53000000    15.12000000
   C     82.84000000    96.26000000    15.35000000
   C     83.79000000    95.09000000    15.16000000
   O     84.08000000    94.36000000    16.14000000
   O     84.32000000    94.91000000    14.04000000
   H     84.44000000    98.00000000    14.07000000
   H     83.81000000    97.28000000    16.92000000
   H     82.32000000    96.51000000    14.43000000
   H     82.19000000    96.02000000    16.19000000
   N     81.82000000    98.92000000    17.09000000
   C     80.61000000    99.73000000    17.07000000
   C     79.40000000    99.14000000    16.36000000
   O     78.51000000    99.85000000    15.91000000
   H     81.76000000    98.16000000    17.75000000
   H     80.72000000   100.77000000    16.77000000
   H     80.33000000    99.73000000    18.12000000
   N     79.32000000    97.81000000    16.25000000
   C     78.11000000    97.07000000    15.96000000
   C     78.08000000    95.72000000    16.66000000
   O     79.08000000    95.33000000    17.28000000
   C     77.86000000    97.01000000    14.45000000
   C     78.84000000    96.15000000    13.66000000
   O     77.75000000    98.30000000    13.89000000
   H     80.04000000    97.32000000    16.75000000
   H     77.28000000    97.69000000    16.31000000
   H     76.89000000    96.53000000    14.29000000
   H     78.21000000    98.93000000    14.45000000
   H     79.00000000    95.15000000    14.07000000
   H     78.28000000    95.98000000    12.74000000
   H     79.77000000    96.68000000    13.50000000
   N     76.89000000    95.11000000    16.72000000
   C     76.77000000    93.80000000    17.33000000
   C     75.99000000    92.87000000    16.41000000
   O     74.94000000    93.29000000    15.93000000
   C     76.21000000    93.81000000    18.75000000
   C     76.21000000    92.46000000    19.46000000
   C     74.87000000    94.54000000    18.79000000
   C     77.57000000    91.80000000    19.65000000
   H     76.12000000    95.52000000    16.21000000
   H     77.75000000    93.38000000    17.52000000
   H     76.79000000    94.52000000    19.33000000
   H     75.60000000    91.76000000    18.88000000
   H     75.70000000    92.63000000    20.42000000
   H     74.28000000    93.96000000    18.07000000
   H     74.42000000    94.58000000    19.78000000
   H     74.92000000    95.57000000    18.44000000
   H     78.18000000    92.53000000    20.19000000
   H     77.38000000    90.88000000    20.19000000
   H     78.09000000    91.75000000    18.70000000
   N     76.48000000    91.68000000    16.06000000
   C     75.75000000    90.71000000    15.27000000
   C     75.86000000    89.26000000    15.72000000
   O     75.11000000    88.49000000    15.11000000
   C     76.22000000    90.79000000    13.82000000
   C     77.45000000    90.01000000    13.38000000
   O     76.35000000    92.12000000    13.36000000
   H     77.38000000    91.38000000    16.40000000
   H     74.68000000    90.91000000    15.38000000
   H     75.45000000    90.29000000    13.23000000
   H     75.64000000    92.60000000    13.78000000
   H     77.40000000    88.95000000    13.60000000
   H     77.55000000    90.13000000    12.30000000
   H     78.38000000    90.37000000    13.82000000
   N     76.65000000    88.98000000    16.76000000
   C     76.98000000    87.65000000    17.21000000
   C     77.61000000    86.75000000    16.16000000
   O     77.54000000    87.06000000    14.97000000
   C     75.74000000    87.03000000    17.86000000
   C     75.22000000    87.73000000    19.11000000
   O     75.95000000    85.73000000    18.35000000
   H     77.13000000    89.79000000    17.12000000
   H     77.74000000    87.76000000    17.99000000
   H     74.94000000    87.01000000    17.12000000
   H     75.82000000    85.75000000    19.31000000
   H     74.76000000    88.68000000    18.81000000
   H     74.35000000    87.24000000    19.55000000
   H     76.06000000    87.86000000    19.79000000
   N     78.30000000    85.68000000    16.57000000
   C     79.11000000    84.86000000    15.69000000
   C     80.61000000    85.06000000    15.80000000
   O     81.23000000    84.78000000    14.78000000
   C     78.69000000    83.41000000    15.94000000
   C     77.25000000    83.00000000    15.69000000
   C     76.55000000    83.54000000    14.44000000
   C     75.07000000    83.19000000    14.56000000
   N     74.30000000    83.86000000    13.50000000
   H     78.14000000    85.49000000    17.55000000
   H     78.78000000    85.05000000    14.67000000
   H     78.97000000    83.02000000    16.92000000
   H     79.25000000    82.74000000    15.29000000
   H     76.70000000    83.27000000    16.59000000
   H     77.18000000    81.92000000    15.59000000
   H     76.93000000    82.99000000    13.58000000
   H     76.79000000    84.60000000    14.34000000
   H     74.68000000    83.58000000    15.49000000
   H     74.92000000    82.11000000    14.51000000
   H     73.34000000    83.63000000    13.67000000
   H     74.40000000    84.85000000    13.35000000
   H     74.53000000    83.53000000    12.57000000
   N     81.33000000    85.43000000    16.86000000
   C     81.08000000    86.10000000    18.12000000
   C     80.02000000    85.49000000    19.02000000
   O     79.17000000    86.14000000    19.64000000
   C     80.98000000    87.58000000    17.76000000
   C     81.18000000    88.58000000    18.90000000
   C     81.85000000    89.82000000    18.33000000
   O     81.11000000    90.80000000    18.06000000
   O     83.07000000    89.74000000    18.09000000
   H     82.32000000    85.28000000    16.71000000
   H     82.05000000    86.07000000    18.62000000
   H     80.00000000    87.80000000    17.32000000
   H     81.70000000    87.82000000    16.98000000
   H     81.83000000    88.19000000    19.68000000
   H     80.19000000    88.75000000    19.33000000
   N     79.98000000    84.16000000    19.11000000
   C     79.07000000    83.44000000    19.98000000
   H     78.12100000    83.28800000    19.46600000
   H     79.50200000    82.47300000    20.23800000
   H     78.90200000    84.01800000    20.88900000
   H     80.71000000    83.61000000    18.68000000
  Ca     83.04000000    92.57000000    17.85000000
   O     83.87000000    91.31000000    15.56000000
   H     83.93000000    91.65000000    14.67000000
   H     84.52000000    90.61000000    15.60000000
   O     81.18000000    94.25000000    18.83000000
   H     80.62000000    94.51000000    18.11000000
   H     81.10000000    94.96000000    19.47000000
   O     81.21000000    93.19000000    16.00000000
   H     80.53000000    92.53000000    16.13000000
   H     81.16000000    93.41000000    15.07000000
   O     83.23000000    92.47000000    20.63000000
   H     83.54000000    92.08000000    21.45000000
   H     82.72000000    93.23000000    20.91000000
   O     85.26000000    91.40000000    18.16000000
   H     86.15000000    91.73000000    18.06000000
   H     85.37000000    90.55000000    18.59000000

Ca 1.00



