%chk=loop4.apoCaM-CA-Ng.Init295.run51.water3.chk
%nprocshared=20
%mem=10GB
%nosave
#b3lyp/svp scf=(tight,noincore,xqc) Test 
#IOP(5/87=12) Density=Current Pop=(MK,readradii) iop(6/33=2) iop(6/42=6)

loop4.apoCaM-CA-Ng.Init295.run51.water3 

   -3  1 
   C     75.57000000    41.34000000    51.25000000
   C     76.52000000    40.23000000    51.71000000
   O     77.67000000    40.30000000    51.29000000
   H     74.66400000    41.31600000    51.85500000
   H     76.05800000    42.30800000    51.36600000
   H     75.31100000    41.18600000    50.20300000
   N     76.16000000    39.14000000    52.38000000
   C     76.93000000    37.95000000    52.71000000
   C     78.09000000    38.02000000    53.68000000
   O     79.27000000    37.85000000    53.36000000
   C     77.27000000    37.17000000    51.44000000
   C     76.16000000    37.20000000    50.39000000
   O     76.24000000    37.88000000    49.35000000
   O     75.27000000    36.34000000    50.55000000
   H     75.21000000    39.16000000    52.71000000
   H     76.17000000    37.38000000    53.24000000
   H     77.53000000    36.17000000    51.77000000
   H     78.14000000    37.68000000    51.04000000
   N     77.75000000    38.54000000    54.86000000
   C     78.68000000    38.84000000    55.94000000
   C     78.32000000    37.89000000    57.07000000
   O     77.15000000    37.78000000    57.41000000
   C     78.59000000    40.31000000    56.35000000
   C     78.84000000    41.31000000    55.22000000
   C     79.42000000    40.72000000    57.56000000
   C     78.07000000    42.61000000    55.44000000
   H     76.78000000    38.66000000    55.12000000
   H     79.71000000    38.84000000    55.57000000
   H     77.58000000    40.58000000    56.67000000
   H     78.50000000    40.89000000    54.27000000
   H     79.88000000    41.53000000    54.98000000
   H     80.44000000    40.51000000    57.26000000
   H     79.33000000    41.75000000    57.91000000
   H     79.03000000    40.14000000    58.41000000
   H     76.99000000    42.52000000    55.49000000
   H     78.43000000    43.09000000    56.34000000
   H     78.30000000    43.24000000    54.58000000
   N     79.27000000    37.13000000    57.61000000
   C     80.68000000    37.08000000    57.26000000
   C     81.05000000    35.93000000    56.33000000
   O     81.61000000    36.19000000    55.28000000
   C     81.61000000    37.14000000    58.46000000
   C     81.34000000    38.28000000    59.44000000
   O     80.66000000    38.07000000    60.47000000
   O     81.76000000    39.41000000    59.12000000
   H     78.99000000    36.51000000    58.35000000
   H     80.94000000    37.99000000    56.71000000
   H     82.65000000    37.18000000    58.13000000
   H     81.41000000    36.22000000    59.01000000
   N     80.60000000    34.70000000    56.57000000
   C     80.80000000    33.54000000    55.72000000
   C     82.28000000    33.24000000    55.60000000
   O     83.07000000    33.55000000    56.50000000
   H     80.15000000    34.45000000    57.45000000
   H     80.41000000    33.65000000    54.71000000
   H     80.32000000    32.67000000    56.18000000
   N     82.72000000    32.80000000    54.42000000
   C     84.11000000    32.48000000    54.13000000
   C     84.93000000    33.67000000    53.64000000
   O     86.16000000    33.62000000    53.68000000
   C     84.03000000    31.32000000    53.14000000
   C     83.25000000    31.51000000    51.85000000
   O     83.22000000    30.57000000    51.03000000
   O     82.77000000    32.64000000    51.58000000
   H     82.02000000    32.60000000    53.73000000
   H     84.68000000    32.04000000    54.94000000
   H     83.71000000    30.41000000    53.67000000
   H     85.02000000    31.04000000    52.79000000
   N     84.26000000    34.69000000    53.11000000
   C     84.90000000    35.77000000    52.39000000
   C     85.20000000    35.51000000    50.93000000
   O     85.82000000    36.34000000    50.27000000
   H     83.26000000    34.67000000    53.28000000
   H     85.88000000    35.99000000    52.82000000
   H     84.38000000    36.72000000    52.57000000
   N     84.74000000    34.33000000    50.51000000
   C     84.63000000    33.79000000    49.17000000
   C     84.42000000    34.83000000    48.07000000
   O     85.18000000    34.99000000    47.12000000
   C     85.89000000    32.94000000    48.99000000
   C     85.74000000    32.01000000    47.79000000
   C     86.66000000    30.81000000    47.93000000
   N     87.82000000    30.82000000    47.27000000
   O     86.33000000    29.79000000    48.54000000
   H     84.24000000    33.72000000    51.14000000
   H     83.80000000    33.09000000    49.14000000
   H     85.99000000    32.31000000    49.88000000
   H     86.76000000    33.58000000    48.84000000
   H     85.82000000    32.53000000    46.83000000
   H     84.71000000    31.65000000    47.86000000
   H     88.07000000    31.74000000    46.96000000
   H     88.48000000    30.05000000    47.24000000
   N     83.35000000    35.61000000    48.22000000
   C     83.02000000    36.70000000    47.32000000
   C     82.36000000    36.15000000    46.06000000
   O     81.56000000    35.22000000    46.15000000
   C     82.12000000    37.74000000    47.96000000
   C     80.91000000    37.34000000    48.80000000
   C     83.04000000    38.61000000    48.83000000
   H     82.74000000    35.53000000    49.02000000
   H     84.00000000    37.14000000    47.09000000
   H     81.77000000    38.48000000    47.23000000
   H     81.09000000    37.40000000    49.87000000
   H     80.09000000    38.02000000    48.54000000
   H     80.68000000    36.29000000    48.64000000
   H     83.42000000    37.95000000    49.61000000
   H     83.72000000    39.22000000    48.23000000
   H     82.44000000    39.37000000    49.32000000
   N     82.52000000    36.87000000    44.96000000
   C     81.80000000    36.80000000    43.70000000
   C     81.27000000    38.18000000    43.33000000
   O     81.96000000    39.19000000    43.50000000
   C     82.76000000    36.13000000    42.72000000
   C     82.27000000    35.90000000    41.29000000
   N     81.00000000    35.51000000    41.11000000
   O     82.89000000    36.36000000    40.34000000
   H     83.26000000    37.56000000    44.97000000
   H     80.97000000    36.12000000    43.86000000
   H     82.92000000    35.16000000    43.19000000
   H     83.74000000    36.59000000    42.61000000
   H     80.35000000    35.35000000    41.86000000
   H     80.67000000    35.54000000    40.15000000
   N     80.07000000    38.25000000    42.76000000
   C     79.43000000    39.45000000    42.25000000
   C     77.91000000    39.42000000    42.36000000
   O     77.25000000    39.96000000    41.48000000
   C     79.85000000    39.66000000    40.80000000
   C     80.32000000    41.07000000    40.53000000
   C     81.64000000    41.43000000    40.80000000
   C     79.37000000    42.06000000    40.22000000
   C     82.07000000    42.75000000    40.58000000
   C     79.79000000    43.38000000    40.05000000
   C     81.15000000    43.72000000    40.14000000
   O     81.43000000    45.03000000    39.89000000
   H     79.63000000    37.34000000    42.67000000
   H     79.78000000    40.28000000    42.86000000
   H     79.13000000    39.28000000    40.08000000
   H     80.73000000    39.03000000    40.68000000
   H     82.37000000    40.72000000    41.16000000
   H     78.31000000    41.86000000    40.33000000
   H     83.07000000    43.08000000    40.85000000
   H     79.07000000    44.15000000    39.81000000
   H     80.60000000    45.48000000    39.77000000
   N     77.35000000    38.70000000    43.33000000
   C     75.99000000    38.19000000    43.36000000
   C     74.85000000    39.14000000    43.04000000
   O     73.96000000    38.70000000    42.32000000
   C     75.78000000    37.26000000    44.55000000
   C     74.48000000    36.46000000    44.60000000
   C     74.42000000    35.43000000    45.72000000
   O     74.22000000    34.21000000    45.56000000
   O     74.80000000    35.85000000    46.84000000
   H     77.98000000    38.26000000    43.98000000
   H     75.88000000    37.53000000    42.50000000
   H     75.89000000    37.88000000    45.44000000
   H     76.49000000    36.44000000    44.50000000
   H     74.28000000    35.92000000    43.67000000
   H     73.61000000    37.10000000    44.73000000
   N     74.64000000    40.36000000    43.54000000
   C     75.28000000    40.82000000    44.76000000
   C     76.48000000    41.72000000    44.50000000
   O     76.56000000    42.33000000    43.44000000
   C     74.27000000    41.56000000    45.63000000
   C     72.85000000    40.99000000    45.66000000
   C     72.75000000    39.53000000    46.09000000
   O     71.90000000    38.77000000    45.57000000
   O     73.47000000    39.11000000    47.02000000
   H     73.90000000    40.84000000    43.06000000
   H     75.61000000    39.92000000    45.27000000
   H     74.05000000    42.57000000    45.30000000
   H     74.58000000    41.67000000    46.67000000
   H     72.46000000    41.04000000    44.64000000
   H     72.12000000    41.56000000    46.23000000
   N     77.33000000    41.93000000    45.51000000
   C     78.55000000    42.71000000    45.55000000
   H     79.33400000    42.18600000    45.00400000
   H     78.37500000    43.68300000    45.09000000
   H     78.86000000    42.84800000    46.58600000
   H     77.13000000    41.33000000    46.30000000
  Ca     73.51000000    37.29000000    48.72000000
   O     72.75000000    34.60000000    49.16000000
   H     72.31000000    34.26000000    48.38000000
   H     72.56000000    33.96000000    49.84000000
   O     72.31000000    36.82000000    51.13000000
   H     71.45000000    36.42000000    51.07000000
   H     72.28000000    37.33000000    51.95000000
   O     71.66000000    36.36000000    46.79000000
   H     70.85000000    35.91000000    46.56000000
   H     71.53000000    37.25000000    46.47000000

Ca 1.00



