%chk=loop3.apoCaM-CA-Ng.Init293.run88.water5.chk
%nprocshared=20
%mem=10GB
%nosave
#b3lyp/svp scf=(tight,noincore,xqc) Test 
#IOP(5/87=12) Density=Current Pop=(MK,readradii) iop(6/33=2) iop(6/42=6)

loop3.apoCaM-CA-Ng.Init293.run88.water5 

   0  1 
   C     78.23000000    68.84000000    11.00000000
   C     79.64000000    68.26000000    10.96000000
   O     80.61000000    68.98000000    10.75000000
   H     77.55300000    68.11700000    11.45500000
   H     78.23000000    69.75700000    11.58900000
   H     77.89800000    69.06000000     9.98500000
   N     79.83000000    66.96000000    11.19000000
   C     81.06000000    66.19000000    11.18000000
   C     81.11000000    65.32000000    12.43000000
   O     80.10000000    65.11000000    13.10000000
   C     81.00000000    65.31000000     9.93000000
   C     82.22000000    64.46000000     9.58000000
   O     82.02000000    63.40000000     8.95000000
   O     83.39000000    64.74000000     9.90000000
   H     78.95000000    66.49000000    11.34000000
   H     81.95000000    66.78000000    10.98000000
   H     80.77000000    66.08000000     9.19000000
   H     80.07000000    64.75000000    10.04000000
   N     82.33000000    64.82000000    12.63000000
   C     82.71000000    63.90000000    13.68000000
   C     82.21000000    62.49000000    13.42000000
   O     81.16000000    62.42000000    12.78000000
   C     82.47000000    64.37000000    15.12000000
   C     83.52000000    64.09000000    16.19000000
   C     83.02000000    64.14000000    17.63000000
   C     81.87000000    63.20000000    17.99000000
   N     82.25000000    61.78000000    18.08000000
   H     82.97000000    65.03000000    11.88000000
   H     83.80000000    63.82000000    13.63000000
   H     81.48000000    64.05000000    15.45000000
   H     82.33000000    65.45000000    15.16000000
   H     84.22000000    64.91000000    16.10000000
   H     83.96000000    63.10000000    16.03000000
   H     82.83000000    65.15000000    18.00000000
   H     83.85000000    63.78000000    18.23000000
   H     81.05000000    63.22000000    17.28000000
   H     81.50000000    63.44000000    18.99000000
   H     81.47000000    61.25000000    18.43000000
   H     82.71000000    61.48000000    17.23000000
   H     82.98000000    61.66000000    18.76000000
   N     82.80000000    61.44000000    14.00000000
   C     82.38000000    60.06000000    14.04000000
   C     81.17000000    59.79000000    14.93000000
   O     80.92000000    60.44000000    15.94000000
   C     83.44000000    59.01000000    14.37000000
   C     84.25000000    59.17000000    15.65000000
   O     84.22000000    60.21000000    16.34000000
   O     85.04000000    58.31000000    16.07000000
   H     83.60000000    61.68000000    14.56000000
   H     82.12000000    59.92000000    12.98000000
   H     84.10000000    58.97000000    13.50000000
   H     83.06000000    57.99000000    14.26000000
   N     80.45000000    58.78000000    14.46000000
   C     79.24000000    58.39000000    15.15000000
   C     79.43000000    57.48000000    16.36000000
   O     80.55000000    57.14000000    16.74000000
   H     80.66000000    58.28000000    13.60000000
   H     78.57000000    57.94000000    14.42000000
   H     78.68000000    59.29000000    15.43000000
   N     78.26000000    57.22000000    16.95000000
   C     78.10000000    56.43000000    18.16000000
   C     76.68000000    55.94000000    18.33000000
   O     76.14000000    55.78000000    19.42000000
   C     78.66000000    57.11000000    19.41000000
   C     78.91000000    56.18000000    20.59000000
   N     78.64000000    56.59000000    21.83000000
   O     79.26000000    55.01000000    20.44000000
   H     77.41000000    57.68000000    16.66000000
   H     78.68000000    55.53000000    17.97000000
   H     77.82000000    57.74000000    19.66000000
   H     79.53000000    57.73000000    19.18000000
   H     78.25000000    57.49000000    22.07000000
   H     78.74000000    55.88000000    22.54000000
   N     75.92000000    55.82000000    17.24000000
   C     74.49000000    55.54000000    17.21000000
   C     73.72000000    56.61000000    17.98000000
   O     73.64000000    57.76000000    17.57000000
   H     76.33000000    56.15000000    16.37000000
   H     74.34000000    54.59000000    17.72000000
   H     74.12000000    55.57000000    16.19000000
   N     73.09000000    56.15000000    19.06000000
   C     72.43000000    56.96000000    20.06000000
   C     73.15000000    58.00000000    20.90000000
   O     72.56000000    58.54000000    21.84000000
   C     71.15000000    57.56000000    19.47000000
   C     70.44000000    56.71000000    18.45000000
   C     69.82000000    55.50000000    18.78000000
   C     70.37000000    57.17000000    17.13000000
   C     69.28000000    54.64000000    17.81000000
   C     69.89000000    56.27000000    16.17000000
   C     69.42000000    54.97000000    16.45000000
   O     69.01000000    54.14000000    15.45000000
   H     73.10000000    55.16000000    19.23000000
   H     72.20000000    56.20000000    20.81000000
   H     71.39000000    58.56000000    19.09000000
   H     70.54000000    57.78000000    20.35000000
   H     69.72000000    55.20000000    19.81000000
   H     70.79000000    58.11000000    16.81000000
   H     69.00000000    53.65000000    18.15000000
   H     69.98000000    56.54000000    15.13000000
   H     69.16000000    54.53000000    14.58000000
   N     74.43000000    58.25000000    20.62000000
   C     75.32000000    59.25000000    21.17000000
   C     75.74000000    59.03000000    22.61000000
   O     76.93000000    58.91000000    22.92000000
   C     74.81000000    60.64000000    20.78000000
   C     74.46000000    60.84000000    19.31000000
   C     75.81000000    61.68000000    21.29000000
   C     75.53000000    60.61000000    18.25000000
   H     74.89000000    57.54000000    20.06000000
   H     76.25000000    59.14000000    20.62000000
   H     73.86000000    60.79000000    21.28000000
   H     74.11000000    61.85000000    19.15000000
   H     73.66000000    60.14000000    19.05000000
   H     76.80000000    61.24000000    21.18000000
   H     75.73000000    62.63000000    20.77000000
   H     75.71000000    61.84000000    22.36000000
   H     76.39000000    61.22000000    18.54000000
   H     75.85000000    59.58000000    18.08000000
   H     75.12000000    60.94000000    17.30000000
   N     74.79000000    58.95000000    23.55000000
   C     75.10000000    58.56000000    24.91000000
   C     75.88000000    59.63000000    25.67000000
   O     76.70000000    59.31000000    26.53000000
   C     73.76000000    58.32000000    25.60000000
   O     72.96000000    59.48000000    25.61000000
   H     73.83000000    59.13000000    23.32000000
   H     75.59000000    57.59000000    24.90000000
   H     73.94000000    58.11000000    26.66000000
   H     73.28000000    57.44000000    25.19000000
   H     72.26000000    59.29000000    26.24000000
   N     75.78000000    60.88000000    25.23000000
   C     76.53000000    61.98000000    25.80000000
   C     78.03000000    61.82000000    25.60000000
   O     78.80000000    62.35000000    26.40000000
   C     75.88000000    62.27000000    27.15000000
   H     75.16000000    61.16000000    24.48000000
   H     76.39000000    62.80000000    25.10000000
   H     75.83000000    61.37000000    27.76000000
   H     76.54000000    62.98000000    27.66000000
   H     74.94000000    62.81000000    27.06000000
   N     78.57000000    61.06000000    24.65000000
   C     79.99000000    61.00000000    24.37000000
   C     80.52000000    61.97000000    23.32000000
   O     79.74000000    62.26000000    22.42000000
   C     80.31000000    59.54000000    24.06000000
   H     78.01000000    60.52000000    24.00000000
   H     80.57000000    61.20000000    25.27000000
   H     80.15000000    58.97000000    24.98000000
   H     79.59000000    59.18000000    23.32000000
   H     81.32000000    59.27000000    23.76000000
   N     81.77000000    62.41000000    23.50000000
   C     82.55000000    63.25000000    22.61000000
   C     81.90000000    64.56000000    22.18000000
   O     81.98000000    65.03000000    21.05000000
   C     83.11000000    62.46000000    21.43000000
   C     84.06000000    61.33000000    21.81000000
   C     84.82000000    60.80000000    20.60000000
   O     84.25000000    60.59000000    19.51000000
   O     86.05000000    60.60000000    20.62000000
   H     82.30000000    61.90000000    24.19000000
   H     83.35000000    63.66000000    23.23000000
   H     83.59000000    63.19000000    20.78000000
   H     82.30000000    62.06000000    20.82000000
   H     83.45000000    60.51000000    22.17000000
   H     84.78000000    61.56000000    22.59000000
   N     81.18000000    65.20000000    23.12000000
   C     80.21000000    66.23000000    22.83000000
   H     79.31800000    66.06900000    23.43500000
   H     80.63500000    67.20600000    23.06300000
   H     79.94300000    66.19200000    21.77400000
   H     81.14000000    64.72000000    24.00000000
  Ca     86.17000000    59.23000000    18.30000000
   O     87.75000000    57.81000000    16.91000000
   H     87.89000000    56.98000000    16.45000000
   H     88.12000000    58.47000000    16.32000000
   O     88.61000000    59.93000000    19.09000000
   H     89.23000000    60.63000000    18.88000000
   H     89.14000000    59.14000000    19.13000000
   O     87.08000000    57.24000000    20.32000000
   H     87.93000000    56.84000000    20.17000000
   H     86.47000000    56.50000000    20.37000000
   O     86.67000000    61.55000000    17.21000000
   H     86.62000000    62.24000000    17.87000000
   H     87.00000000    61.98000000    16.42000000
   O     84.25000000    57.20000000    18.92000000
   H     83.77000000    57.06000000    19.73000000
   H     83.60000000    57.05000000    18.23000000

Ca 1.00



