%chk=loop3.holoCaM-CaMKII.run17.water2.chk
%nprocshared=20
%mem=10GB
%nosave
#b3lyp/svp scf=(tight,noincore,xqc) Test 
#IOP(5/87=12) Density=Current Pop=(MK,readradii) iop(6/33=2) iop(6/42=6)

loop3.holoCaM-CaMKII.run17.water2 

   0  1 
   C     69.07000000    65.71000000    30.33000000
   C     68.09000000    65.85000000    31.49000000
   O     67.60000000    64.83000000    31.96000000
   H     70.02100000    65.33000000    30.70300000
   H     68.66500000    65.01600000    29.59300000
   H     69.22600000    66.68400000    29.86500000
   N     67.61000000    67.03000000    31.89000000
   C     66.66000000    67.37000000    32.93000000
   C     65.20000000    67.44000000    32.50000000
   O     64.68000000    68.55000000    32.40000000
   C     67.22000000    68.60000000    33.63000000
   C     66.53000000    68.94000000    34.94000000
   O     66.25000000    70.12000000    35.24000000
   O     66.09000000    67.98000000    35.61000000
   H     68.02000000    67.82000000    31.41000000
   H     66.70000000    66.56000000    33.66000000
   H     67.22000000    69.48000000    32.99000000
   H     68.27000000    68.47000000    33.88000000
   N     64.65000000    66.30000000    32.08000000
   C     63.29000000    66.21000000    31.58000000
   C     62.34000000    66.37000000    32.75000000
   O     61.18000000    66.65000000    32.43000000
   C     63.04000000    64.83000000    30.97000000
   C     63.86000000    64.57000000    29.70000000
   C     63.25000000    65.31000000    28.52000000
   C     64.12000000    65.48000000    27.27000000
   N     63.35000000    66.15000000    26.20000000
   H     65.19000000    65.44000000    32.11000000
   H     63.10000000    66.96000000    30.82000000
   H     61.98000000    64.88000000    30.72000000
   H     63.20000000    64.13000000    31.78000000
   H     63.99000000    63.50000000    29.53000000
   H     64.85000000    65.00000000    29.88000000
   H     63.00000000    66.31000000    28.88000000
   H     62.30000000    64.86000000    28.23000000
   H     64.43000000    64.52000000    26.88000000
   H     65.00000000    66.08000000    27.50000000
   H     62.97000000    67.05000000    26.45000000
   H     63.96000000    66.26000000    25.40000000
   H     62.58000000    65.54000000    25.98000000
   N     62.73000000    66.25000000    34.02000000
   C     61.86000000    66.39000000    35.18000000
   C     61.80000000    67.85000000    35.61000000
   O     60.96000000    68.21000000    36.43000000
   C     62.20000000    65.47000000    36.34000000
   C     63.66000000    65.52000000    36.77000000
   O     64.52000000    64.94000000    36.07000000
   O     63.99000000    66.11000000    37.82000000
   H     63.72000000    66.14000000    34.20000000
   H     60.85000000    66.20000000    34.83000000
   H     62.06000000    64.45000000    35.99000000
   H     61.60000000    65.64000000    37.24000000
   N     62.66000000    68.72000000    35.07000000
   C     62.60000000    70.15000000    35.26000000
   C     63.10000000    70.57000000    36.64000000
   O     62.76000000    71.68000000    37.05000000
   H     63.15000000    68.32000000    34.28000000
   H     61.60000000    70.54000000    35.05000000
   H     63.23000000    70.68000000    34.55000000
   N     63.90000000    69.79000000    37.36000000
   C     64.31000000    70.15000000    38.71000000
   C     65.59000000    70.95000000    38.87000000
   O     65.92000000    71.45000000    39.94000000
   C     64.24000000    68.92000000    39.61000000
   C     65.59000000    68.25000000    39.82000000
   N     65.89000000    68.08000000    41.11000000
   O     66.32000000    67.80000000    38.94000000
   H     64.17000000    68.86000000    37.09000000
   H     63.58000000    70.87000000    39.08000000
   H     63.49000000    68.26000000    39.17000000
   H     63.80000000    69.27000000    40.55000000
   H     65.32000000    68.53000000    41.81000000
   H     66.74000000    67.62000000    41.38000000
   N     66.30000000    71.21000000    37.77000000
   C     67.44000000    72.08000000    37.61000000
   C     68.81000000    71.40000000    37.61000000
   O     69.80000000    72.09000000    37.82000000
   H     66.00000000    70.82000000    36.88000000
   H     67.44000000    72.89000000    38.35000000
   H     67.38000000    72.64000000    36.68000000
   N     68.91000000    70.08000000    37.49000000
   C     70.15000000    69.38000000    37.79000000
   C     70.15000000    68.11000000    36.96000000
   O     69.15000000    67.48000000    36.63000000
   C     70.13000000    69.00000000    39.26000000
   C     70.08000000    70.20000000    40.17000000
   C     71.29000000    70.77000000    40.57000000
   C     68.90000000    70.59000000    40.82000000
   C     71.28000000    71.71000000    41.61000000
   C     68.85000000    71.53000000    41.86000000
   C     70.08000000    72.12000000    42.22000000
   O     69.98000000    73.05000000    43.21000000
   H     68.11000000    69.60000000    37.10000000
   H     71.06000000    69.93000000    37.57000000
   H     71.11000000    68.55000000    39.42000000
   H     69.32000000    68.29000000    39.45000000
   H     72.25000000    70.39000000    40.25000000
   H     67.93000000    70.15000000    40.62000000
   H     72.20000000    72.16000000    41.97000000
   H     67.94000000    71.87000000    42.33000000
   H     69.08000000    73.08000000    43.54000000
   N     71.41000000    67.75000000    36.74000000
   C     71.78000000    66.47000000    36.17000000
   C     72.56000000    65.57000000    37.12000000
   O     73.54000000    65.97000000    37.74000000
   C     72.48000000    66.57000000    34.82000000
   C     72.05000000    67.72000000    33.91000000
   C     72.52000000    65.22000000    34.10000000
   C     73.16000000    68.26000000    33.00000000
   H     72.11000000    68.34000000    37.18000000
   H     70.89000000    65.89000000    35.92000000
   H     73.55000000    66.71000000    35.00000000
   H     71.66000000    68.57000000    34.48000000
   H     71.19000000    67.46000000    33.30000000
   H     73.20000000    64.54000000    34.62000000
   H     71.51000000    64.81000000    34.03000000
   H     72.89000000    65.31000000    33.08000000
   H     72.83000000    69.09000000    32.38000000
   H     74.05000000    68.51000000    33.58000000
   H     73.43000000    67.50000000    32.27000000
   N     72.18000000    64.31000000    37.30000000
   C     72.77000000    63.22000000    38.06000000
   C     73.41000000    62.22000000    37.11000000
   O     73.08000000    62.16000000    35.93000000
   C     71.62000000    62.56000000    38.82000000
   O     70.93000000    61.69000000    37.95000000
   H     71.41000000    63.96000000    36.73000000
   H     73.49000000    63.72000000    38.70000000
   H     70.91000000    63.34000000    39.12000000
   H     71.93000000    61.99000000    39.69000000
   H     70.04000000    61.61000000    38.29000000
   N     74.34000000    61.41000000    37.62000000
   C     75.08000000    60.47000000    36.81000000
   C     74.18000000    59.44000000    36.14000000
   O     74.53000000    58.94000000    35.08000000
   C     76.26000000    59.77000000    37.48000000
   H     74.42000000    61.51000000    38.63000000
   H     75.51000000    61.05000000    36.00000000
   H     75.95000000    59.25000000    38.39000000
   H     76.80000000    59.03000000    36.89000000
   H     76.90000000    60.57000000    37.86000000
   N     72.92000000    59.25000000    36.54000000
   C     71.92000000    58.47000000    35.84000000
   C     71.25000000    59.22000000    34.70000000
   O     71.21000000    58.81000000    33.54000000
   C     70.96000000    57.94000000    36.90000000
   H     72.71000000    59.60000000    37.46000000
   H     72.38000000    57.55000000    35.47000000
   H     70.74000000    58.77000000    37.57000000
   H     70.01000000    57.56000000    36.52000000
   H     71.42000000    57.17000000    37.52000000
   N     70.96000000    60.51000000    34.93000000
   C     70.35000000    61.34000000    33.92000000
   C     71.38000000    61.62000000    32.84000000
   O     70.93000000    61.87000000    31.73000000
   C     69.74000000    62.58000000    34.57000000
   C     68.47000000    62.11000000    35.27000000
   C     67.74000000    63.35000000    35.78000000
   O     67.05000000    63.34000000    36.82000000
   O     67.83000000    64.47000000    35.24000000
   H     71.24000000    60.87000000    35.83000000
   H     69.57000000    60.79000000    33.39000000
   H     69.51000000    63.32000000    33.81000000
   H     70.35000000    63.08000000    35.33000000
   H     68.59000000    61.38000000    36.06000000
   H     67.71000000    61.67000000    34.61000000
   N     72.69000000    61.76000000    33.07000000
   C     73.64000000    61.92000000    31.98000000
   H     74.58700000    61.45400000    32.25300000
   H     73.24700000    61.44400000    31.08200000
   H     73.79900000    62.98100000    31.78900000
   H     72.94000000    61.77000000    34.05000000
  Ca     66.69000000    65.99000000    37.15000000
   O     68.69000000    65.19000000    38.90000000
   H     69.60000000    65.30000000    39.18000000
   H     68.28000000    64.72000000    39.63000000
   O     65.74000000    64.40000000    39.27000000
   H     65.47000000    63.58000000    39.68000000
   H     64.92000000    64.89000000    39.14000000

Ca 1.00



