%chk=loop3.apoCaM-CA-Ng.Init293.run32.water3.chk
%nprocshared=20
%mem=10GB
%nosave
#b3lyp/svp scf=(tight,noincore,xqc) Test 
#IOP(5/87=12) Density=Current Pop=(MK,readradii) iop(6/33=2) iop(6/42=6)

loop3.apoCaM-CA-Ng.Init293.run32.water3 

   0  1 
   C     35.48000000    -8.47000000   -13.45000000
   C     34.38000000    -8.70000000   -14.47000000
   O     34.22000000    -9.83000000   -14.93000000
   H     36.31900000    -7.96400000   -13.92900000
   H     35.09900000    -7.85100000   -12.63700000
   H     35.81400000    -9.42800000   -13.05200000
   N     33.59000000    -7.68000000   -14.83000000
   C     32.65000000    -7.59000000   -15.93000000
   C     31.28000000    -8.06000000   -15.47000000
   O     30.80000000    -7.86000000   -14.35000000
   C     32.54000000    -6.17000000   -16.46000000
   C     31.76000000    -5.91000000   -17.74000000
   O     31.36000000    -6.88000000   -18.42000000
   O     31.53000000    -4.71000000   -17.99000000
   H     33.79000000    -6.82000000   -14.33000000
   H     33.07000000    -8.08000000   -16.82000000
   H     33.56000000    -5.84000000   -16.67000000
   H     32.25000000    -5.48000000   -15.66000000
   N     30.65000000    -8.67000000   -16.47000000
   C     29.52000000    -9.57000000   -16.38000000
   C     28.18000000    -9.02000000   -15.88000000
   O     27.15000000    -9.66000000   -16.08000000
   C     29.88000000   -10.82000000   -15.58000000
   C     29.31000000   -12.08000000   -16.21000000
   C     29.38000000   -13.30000000   -15.29000000
   C     30.80000000   -13.85000000   -15.23000000
   N     31.08000000   -14.46000000   -13.92000000
   H     30.99000000    -8.53000000   -17.41000000
   H     29.36000000    -9.79000000   -17.43000000
   H     29.52000000   -10.70000000   -14.56000000
   H     30.96000000   -10.93000000   -15.46000000
   H     29.78000000   -12.24000000   -17.18000000
   H     28.25000000   -11.90000000   -16.39000000
   H     28.59000000   -13.99000000   -15.59000000
   H     28.99000000   -12.91000000   -14.35000000
   H     31.51000000   -13.04000000   -15.35000000
   H     30.99000000   -14.52000000   -16.07000000
   H     30.35000000   -15.13000000   -13.75000000
   H     31.98000000   -14.91000000   -13.85000000
   H     31.07000000   -13.76000000   -13.19000000
   N     28.12000000    -7.79000000   -15.39000000
   C     26.99000000    -6.94000000   -15.06000000
   C     27.14000000    -5.59000000   -15.75000000
   O     28.26000000    -5.20000000   -16.08000000
   C     27.01000000    -6.75000000   -13.55000000
   C     25.82000000    -6.02000000   -12.93000000
   O     25.89000000    -5.39000000   -11.85000000
   O     24.72000000    -5.97000000   -13.53000000
   H     29.01000000    -7.31000000   -15.43000000
   H     26.08000000    -7.41000000   -15.42000000
   H     27.95000000    -6.23000000   -13.37000000
   H     26.97000000    -7.73000000   -13.07000000
   N     26.01000000    -4.90000000   -15.88000000
   C     25.98000000    -3.51000000   -16.27000000
   C     25.54000000    -2.53000000   -15.19000000
   O     24.63000000    -2.93000000   -14.46000000
   H     25.21000000    -5.35000000   -15.45000000
   H     25.17000000    -3.52000000   -17.01000000
   H     26.89000000    -3.20000000   -16.79000000
   N     26.08000000    -1.32000000   -15.04000000
   C     25.83000000    -0.39000000   -13.97000000
   C     25.33000000     0.96000000   -14.48000000
   O     24.93000000     1.83000000   -13.71000000
   C     27.06000000    -0.44000000   -13.07000000
   C     27.30000000    -1.80000000   -12.41000000
   N     28.48000000    -2.41000000   -12.46000000
   O     26.34000000    -2.46000000   -12.03000000
   H     26.81000000    -1.14000000   -15.72000000
   H     24.98000000    -0.64000000   -13.34000000
   H     26.82000000     0.26000000   -12.27000000
   H     28.00000000    -0.08000000   -13.48000000
   H     29.21000000    -1.93000000   -12.97000000
   H     28.61000000    -3.27000000   -11.95000000
   N     25.40000000     1.19000000   -15.79000000
   C     25.03000000     2.49000000   -16.32000000
   C     25.88000000     3.61000000   -15.74000000
   O     27.07000000     3.39000000   -15.49000000
   H     25.81000000     0.50000000   -16.40000000
   H     23.99000000     2.74000000   -16.09000000
   H     25.12000000     2.33000000   -17.40000000
   N     25.32000000     4.77000000   -15.41000000
   C     26.01000000     5.85000000   -14.73000000
   C     26.54000000     5.61000000   -13.33000000
   O     27.04000000     6.55000000   -12.71000000
   C     27.00000000     6.55000000   -15.66000000
   C     26.36000000     7.27000000   -16.81000000
   C     26.38000000     6.53000000   -18.00000000
   C     25.83000000     8.57000000   -16.76000000
   C     26.10000000     7.09000000   -19.26000000
   C     25.45000000     9.12000000   -17.99000000
   C     25.59000000     8.40000000   -19.20000000
   O     25.29000000     9.08000000   -20.34000000
   H     24.36000000     4.97000000   -15.62000000
   H     25.34000000     6.69000000   -14.52000000
   H     27.75000000     5.84000000   -16.03000000
   H     27.48000000     7.30000000   -15.04000000
   H     26.73000000     5.51000000   -18.02000000
   H     25.95000000     9.17000000   -15.87000000
   H     26.08000000     6.51000000   -20.17000000
   H     25.21000000    10.17000000   -17.99000000
   H     25.06000000    10.00000000   -20.19000000
   N     26.43000000     4.41000000   -12.76000000
   C     26.61000000     4.05000000   -11.37000000
   C     25.75000000     4.78000000   -10.35000000
   O     25.05000000     4.11000000    -9.59000000
   C     28.08000000     4.18000000   -10.96000000
   C     28.98000000     3.23000000   -11.75000000
   C     28.33000000     3.88000000    -9.49000000
   C     30.48000000     3.52000000   -11.83000000
   H     26.30000000     3.70000000   -13.46000000
   H     26.32000000     3.01000000   -11.33000000
   H     28.35000000     5.21000000   -11.18000000
   H     28.60000000     3.02000000   -12.75000000
   H     28.99000000     2.29000000   -11.19000000
   H     29.36000000     3.80000000    -9.13000000
   H     27.89000000     4.64000000    -8.85000000
   H     27.86000000     2.94000000    -9.19000000
   H     30.94000000     3.55000000   -10.84000000
   H     31.04000000     2.73000000   -12.33000000
   H     30.62000000     4.49000000   -12.29000000
   N     25.52000000     6.09000000   -10.45000000
   C     24.69000000     7.05000000    -9.75000000
   C     24.79000000     6.95000000    -8.24000000
   O     23.91000000     7.45000000    -7.54000000
   C     24.92000000     8.50000000   -10.19000000
   O     25.02000000     8.68000000   -11.59000000
   H     26.00000000     6.48000000   -11.24000000
   H     23.68000000     6.80000000   -10.07000000
   H     25.88000000     8.81000000    -9.81000000
   H     24.23000000     9.16000000    -9.68000000
   H     25.49000000     9.50000000   -11.72000000
   N     25.86000000     6.36000000    -7.71000000
   C     25.93000000     5.89000000    -6.35000000
   C     24.69000000     5.11000000    -5.92000000
   O     24.01000000     5.42000000    -4.95000000
   C     26.31000000     7.02000000    -5.39000000
   H     26.53000000     5.97000000    -8.37000000
   H     26.79000000     5.22000000    -6.31000000
   H     26.82000000     6.59000000    -4.53000000
   H     26.89000000     7.78000000    -5.91000000
   H     25.39000000     7.47000000    -5.02000000
   N     24.29000000     4.14000000    -6.75000000
   C     23.21000000     3.18000000    -6.61000000
   C     23.66000000     1.73000000    -6.71000000
   O     24.73000000     1.40000000    -7.22000000
   C     22.13000000     3.65000000    -7.57000000
   H     24.76000000     3.94000000    -7.62000000
   H     22.83000000     3.36000000    -5.60000000
   H     21.38000000     2.85000000    -7.62000000
   H     21.72000000     4.60000000    -7.22000000
   H     22.59000000     3.71000000    -8.56000000
   N     22.88000000     0.78000000    -6.19000000
   C     23.21000000    -0.63000000    -6.13000000
   C     24.44000000    -0.97000000    -5.29000000
   O     25.06000000    -1.98000000    -5.58000000
   C     23.20000000    -1.16000000    -7.56000000
   C     22.97000000    -2.66000000    -7.67000000
   C     23.39000000    -3.01000000    -9.09000000
   O     24.41000000    -3.73000000    -9.20000000
   O     22.73000000    -2.61000000   -10.07000000
   H     21.96000000     1.09000000    -5.90000000
   H     22.38000000    -1.16000000    -5.65000000
   H     24.13000000    -0.84000000    -8.03000000
   H     22.34000000    -0.71000000    -8.05000000
   H     21.91000000    -2.81000000    -7.45000000
   H     23.51000000    -3.25000000    -6.92000000
   N     24.77000000    -0.09000000    -4.33000000
   C     26.04000000    -0.14000000    -3.64000000
   H     26.75300000     0.51200000    -4.14500000
   H     25.90800000     0.19400000    -2.61100000
   H     26.41700000    -1.16300000    -3.64500000
   H     24.13000000     0.66000000    -4.11000000
  Ca     23.86000000    -3.81500000   -11.96500000
   O     22.65000000    -1.58500000   -12.91500000
   H     22.20000000    -1.45500000   -13.74500000
   H     22.36000000    -0.86500000   -12.36500000
   O     21.22000000    -4.34500000   -12.55500000
   H     20.67000000    -3.76500000   -13.06500000
   H     20.61000000    -4.84500000   -12.01500000
   O     23.03000000    -6.05500000   -10.80500000
   H     22.54000000    -6.13500000    -9.99500000
   H     22.60000000    -6.65500000   -11.40500000

Ca 1.00



