%chk=loop3.holoCaM-CaMKII.run65.water2.chk
%nprocshared=20
%mem=10GB
%nosave
#b3lyp/svp scf=(tight,noincore,xqc) Test 
#IOP(5/87=12) Density=Current Pop=(MK,readradii) iop(6/33=2) iop(6/42=6)

loop3.holoCaM-CaMKII.run65.water2 

   0  1 
   C     24.24000000    47.44000000    93.38100000
   C     23.90000000    47.23000000    91.91100000
   O     23.58000000    48.16000000    91.17100000
   H     25.05500000    48.15800000    93.46600000
   H     23.36400000    47.82100000    93.90600000
   H     24.54500000    46.49100000    93.82300000
   N     23.80000000    45.96000000    91.54100000
   C     23.19000000    45.49000000    90.31100000
   C     21.68000000    45.64000000    90.38100000
   O     20.94000000    45.13000000    91.22100000
   C     23.61000000    44.04000000    90.11100000
   C     23.15000000    43.50000000    88.77100000
   O     22.50000000    44.17000000    87.94100000
   O     23.30000000    42.27000000    88.56100000
   H     24.10000000    45.30000000    92.25100000
   H     23.53000000    46.05000000    89.43100000
   H     23.12000000    43.39000000    90.83100000
   H     24.67000000    43.96000000    90.34100000
   N     21.15000000    46.48000000    89.49100000
   C     19.84000000    47.10000000    89.59100000
   C     18.67000000    46.22000000    89.18100000
   O     17.62000000    46.25000000    89.81100000
   C     19.76000000    48.39000000    88.77100000
   C     18.59000000    49.30000000    89.15100000
   C     18.50000000    50.49000000    88.20100000
   C     17.11000000    51.10000000    88.32100000
   N     16.23000000    50.51000000    87.30100000
   H     21.83000000    46.98000000    88.94100000
   H     19.83000000    47.33000000    90.65100000
   H     19.73000000    48.11000000    87.71100000
   H     20.64000000    48.98000000    88.99100000
   H     18.87000000    49.64000000    90.14100000
   H     17.68000000    48.70000000    89.10100000
   H     18.51000000    50.08000000    87.19100000
   H     19.30000000    51.20000000    88.40100000
   H     17.01000000    52.12000000    87.95100000
   H     16.65000000    51.01000000    89.31100000
   H     15.28000000    50.84000000    87.38100000
   H     16.49000000    50.70000000    86.34100000
   H     16.17000000    49.52000000    87.45100000
   N     18.92000000    45.31000000    88.23100000
   C     18.13000000    44.22000000    87.71100000
   C     18.74000000    42.85000000    87.99100000
   O     18.22000000    41.85000000    87.49100000
   C     17.89000000    44.48000000    86.23100000
   C     19.12000000    44.60000000    85.33100000
   O     20.30000000    44.48000000    85.73100000
   O     18.90000000    44.80000000    84.12100000
   H     19.89000000    45.17000000    88.00100000
   H     17.10000000    44.26000000    88.07100000
   H     17.30000000    45.38000000    86.04100000
   H     17.23000000    43.68000000    85.90100000
   N     19.80000000    42.76000000    88.78100000
   C     20.38000000    41.52000000    89.24100000
   C     20.89000000    40.58000000    88.15100000
   O     21.25000000    39.46000000    88.50100000
   H     19.92000000    43.63000000    89.28100000
   H     19.74000000    40.86000000    89.83100000
   H     21.28000000    41.81000000    89.79100000
   N     21.18000000    41.02000000    86.92100000
   C     21.60000000    40.08000000    85.89100000
   C     23.01000000    39.59000000    86.14100000
   O     23.53000000    38.80000000    85.35100000
   C     21.39000000    40.84000000    84.59100000
   C     22.56000000    41.78000000    84.29100000
   N     23.14000000    41.68000000    83.10100000
   O     22.95000000    42.58000000    85.13100000
   H     21.16000000    42.01000000    86.72100000
   H     20.94000000    39.21000000    85.97100000
   H     20.42000000    41.27000000    84.35100000
   H     21.56000000    40.07000000    83.83100000
   H     22.87000000    40.99000000    82.41100000
   H     23.83000000    42.36000000    82.81100000
   N     23.69000000    39.99000000    87.22100000
   C     25.03000000    39.52000000    87.47100000
   C     26.12000000    40.57000000    87.34100000
   O     27.28000000    40.31000000    87.63100000
   H     23.26000000    40.73000000    87.77100000
   H     25.27000000    38.71000000    86.78100000
   H     25.07000000    39.21000000    88.52100000
   N     25.80000000    41.78000000    86.86100000
   C     26.83000000    42.71000000    86.44100000
   C     26.42000000    44.12000000    86.83100000
   O     25.27000000    44.54000000    86.70100000
   C     26.99000000    42.59000000    84.93100000
   C     27.69000000    41.35000000    84.44100000
   C     29.07000000    41.19000000    84.62100000
   C     27.00000000    40.45000000    83.62100000
   C     29.72000000    40.16000000    83.93100000
   C     27.65000000    39.35000000    83.04100000
   C     29.05000000    39.23000000    83.11100000
   O     29.69000000    38.23000000    82.43100000
   H     24.85000000    41.97000000    86.57100000
   H     27.83000000    42.49000000    86.81100000
   H     27.53000000    43.45000000    84.53100000
   H     25.99000000    42.70000000    84.51100000
   H     29.63000000    41.89000000    85.21100000
   H     25.97000000    40.65000000    83.38100000
   H     30.76000000    40.03000000    84.17100000
   H     27.10000000    38.72000000    82.35100000
   H     30.65000000    38.27000000    82.50100000
   N     27.36000000    44.93000000    87.32100000
   C     27.22000000    46.35000000    87.59100000
   C     27.94000000    47.15000000    86.51100000
   O     29.09000000    46.83000000    86.23100000
   C     27.62000000    46.65000000    89.03100000
   C     27.03000000    45.65000000    90.01100000
   C     27.29000000    48.08000000    89.47100000
   C     27.88000000    45.49000000    91.27100000
   H     28.27000000    44.51000000    87.44100000
   H     26.14000000    46.50000000    87.55100000
   H     28.71000000    46.60000000    88.98100000
   H     27.02000000    44.66000000    89.55100000
   H     26.01000000    45.98000000    90.20100000
   H     26.22000000    48.29000000    89.56100000
   H     27.60000000    48.13000000    90.52100000
   H     27.73000000    48.83000000    88.82100000
   H     28.11000000    46.41000000    91.80100000
   H     27.30000000    44.91000000    91.99100000
   H     28.86000000    45.07000000    91.01100000
   N     27.27000000    48.19000000    86.02100000
   C     27.82000000    49.21000000    85.14100000
   C     27.98000000    50.55000000    85.85100000
   O     27.60000000    50.77000000    87.00100000
   C     26.71000000    49.35000000    84.11100000
   O     25.53000000    49.81000000    84.73100000
   H     26.36000000    48.41000000    86.40100000
   H     28.79000000    48.89000000    84.75100000
   H     26.59000000    48.43000000    83.54100000
   H     27.10000000    50.13000000    83.46100000
   H     24.99000000    50.07000000    83.97100000
   N     28.44000000    51.59000000    85.15100000
   C     28.62000000    52.93000000    85.67100000
   C     27.31000000    53.59000000    86.07100000
   O     27.24000000    54.24000000    87.11100000
   C     29.35000000    53.82000000    84.68100000
   H     28.85000000    51.48000000    84.24100000
   H     29.18000000    52.90000000    86.61100000
   H     28.75000000    54.07000000    83.81100000
   H     29.55000000    54.77000000    85.19100000
   H     30.20000000    53.29000000    84.25100000
   N     26.25000000    53.36000000    85.29100000
   C     24.90000000    53.84000000    85.56100000
   C     24.26000000    53.13000000    86.75100000
   O     23.46000000    53.73000000    87.47100000
   C     24.01000000    53.56000000    84.35100000
   H     26.46000000    52.82000000    84.47100000
   H     24.97000000    54.92000000    85.68100000
   H     24.54000000    53.76000000    83.42100000
   H     23.67000000    52.53000000    84.39100000
   H     23.09000000    54.14000000    84.37100000
   N     24.64000000    51.88000000    87.01100000
   C     24.10000000    51.17000000    88.15100000
   C     24.86000000    51.50000000    89.42100000
   O     24.27000000    51.72000000    90.48100000
   C     24.04000000    49.68000000    87.81100000
   C     22.95000000    49.45000000    86.77100000
   C     22.92000000    48.00000000    86.31100000
   O     23.25000000    47.09000000    87.10100000
   O     22.40000000    47.67000000    85.22100000
   H     25.41000000    51.53000000    86.46100000
   H     23.08000000    51.55000000    88.28100000
   H     23.81000000    49.06000000    88.68100000
   H     24.98000000    49.25000000    87.48100000
   H     23.12000000    50.07000000    85.89100000
   H     21.95000000    49.67000000    87.15100000
   N     26.14000000    51.85000000    89.29100000
   C     26.78000000    52.45000000    90.44100000
   H     27.68100000    52.97300000    90.12200000
   H     26.09600000    53.15800000    90.91000000
   H     27.04600000    51.67200000    91.15700000
   H     26.60000000    51.92000000    88.39100000
  Ca     22.76000000    45.06000000    85.53000000
   O     24.56000000    45.54000000    83.66000000
   H     25.48000000    45.75000000    83.77000000
   H     24.43000000    45.51000000    82.71000000
   O     21.62000000    44.73000000    83.14000000
   H     21.50000000    44.38000000    82.25000000
   H     20.74000000    44.85000000    83.48000000

Ca 1.00



