%chk=loop4.apoCaM-CA-Ng.Init295.run86.water3.chk
%nprocshared=20
%mem=10GB
%nosave
#b3lyp/svp scf=(tight,noincore,xqc) Test 
#IOP(5/87=12) Density=Current Pop=(MK,readradii) iop(6/33=2) iop(6/42=6)

loop4.apoCaM-CA-Ng.Init295.run86.water3 

   -3  1 
   C    117.21000000   -21.55000000    48.22000000
   C    117.03000000   -22.91000000    47.58000000
   O    116.10000000   -23.59000000    48.02000000
   H    118.02700000   -21.02300000    47.72800000
   H    116.29100000   -20.97400000    48.11400000
   H    117.44300000   -21.67300000    49.27800000
   N    117.80000000   -23.34000000    46.59000000
   C    117.84000000   -24.57000000    45.81000000
   C    116.47000000   -25.05000000    45.35000000
   O    116.00000000   -26.12000000    45.73000000
   C    118.64000000   -25.64000000    46.55000000
   C    119.96000000   -25.11000000    47.08000000
   O    120.10000000   -24.92000000    48.31000000
   O    120.97000000   -25.15000000    46.34000000
   H    118.66000000   -22.81000000    46.50000000
   H    118.40000000   -24.40000000    44.89000000
   H    118.73000000   -26.45000000    45.82000000
   H    118.05000000   -26.01000000    47.39000000
   N    115.79000000   -24.27000000    44.51000000
   C    114.50000000   -24.66000000    43.96000000
   C    114.72000000   -25.78000000    42.95000000
   O    115.63000000   -25.65000000    42.13000000
   C    113.85000000   -23.43000000    43.34000000
   C    113.85000000   -22.21000000    44.25000000
   C    112.42000000   -23.78000000    42.91000000
   C    112.96000000   -22.17000000    45.50000000
   H    116.13000000   -23.35000000    44.29000000
   H    113.87000000   -25.07000000    44.74000000
   H    114.39000000   -23.16000000    42.43000000
   H    113.68000000   -21.37000000    43.59000000
   H    114.87000000   -22.04000000    44.61000000
   H    112.40000000   -24.51000000    42.10000000
   H    111.81000000   -24.04000000    43.76000000
   H    111.96000000   -22.91000000    42.44000000
   H    113.13000000   -23.12000000    46.02000000
   H    113.22000000   -21.38000000    46.20000000
   H    111.96000000   -22.16000000    45.07000000
   N    113.97000000   -26.88000000    42.95000000
   C    112.92000000   -27.39000000    43.81000000
   C    113.17000000   -28.80000000    44.34000000
   O    112.34000000   -29.31000000    45.09000000
   C    111.57000000   -27.29000000    43.11000000
   C    111.58000000   -27.78000000    41.66000000
   O    110.52000000   -27.48000000    41.07000000
   O    112.51000000   -28.45000000    41.16000000
   H    114.23000000   -27.52000000    42.22000000
   H    112.75000000   -26.68000000    44.62000000
   H    111.25000000   -26.25000000    43.06000000
   H    110.83000000   -27.86000000    43.67000000
   N    114.16000000   -29.56000000    43.87000000
   C    114.43000000   -30.86000000    44.44000000
   C    113.29000000   -31.87000000    44.50000000
   O    112.37000000   -31.77000000    43.69000000
   H    114.76000000   -29.16000000    43.16000000
   H    114.93000000   -30.73000000    45.40000000
   H    115.25000000   -31.32000000    43.89000000
   N    113.31000000   -32.78000000    45.47000000
   C    112.21000000   -33.70000000    45.71000000
   C    110.96000000   -33.13000000    46.37000000
   O    109.96000000   -33.81000000    46.58000000
   C    112.74000000   -34.72000000    46.72000000
   C    113.30000000   -34.22000000    48.05000000
   O    113.47000000   -33.02000000    48.33000000
   O    113.60000000   -35.11000000    48.87000000
   H    113.99000000   -32.78000000    46.22000000
   H    111.83000000   -34.17000000    44.81000000
   H    113.50000000   -35.30000000    46.20000000
   H    111.92000000   -35.41000000    46.91000000
   N    111.01000000   -31.84000000    46.72000000
   C    109.98000000   -31.02000000    47.33000000
   C    109.86000000   -31.34000000    48.81000000
   O    108.88000000   -30.89000000    49.40000000
   H    111.79000000   -31.38000000    46.28000000
   H    109.04000000   -31.29000000    46.85000000
   H    110.22000000   -29.98000000    47.11000000
   N    110.77000000   -32.09000000    49.43000000
   C    110.71000000   -32.38000000    50.85000000
   C    110.72000000   -31.23000000    51.84000000
   O    110.61000000   -31.49000000    53.03000000
   C    109.61000000   -33.41000000    51.13000000
   C    109.95000000   -34.71000000    50.41000000
   C    109.02000000   -35.88000000    50.69000000
   N    109.25000000   -37.08000000    50.14000000
   O    108.05000000   -35.81000000    51.44000000
   H    111.54000000   -32.45000000    48.88000000
   H    111.56000000   -32.96000000    51.22000000
   H    108.64000000   -33.06000000    50.78000000
   H    109.49000000   -33.63000000    52.19000000
   H    110.92000000   -35.10000000    50.72000000
   H    110.01000000   -34.62000000    49.33000000
   H    110.06000000   -37.37000000    49.61000000
   H    108.47000000   -37.71000000    50.27000000
   N    111.04000000   -30.02000000    51.36000000
   C    111.17000000   -28.96000000    52.33000000
   C    112.43000000   -28.78000000    53.17000000
   O    113.56000000   -28.98000000    52.73000000
   C    110.80000000   -27.60000000    51.74000000
   C    111.43000000   -27.36000000    50.37000000
   C    109.30000000   -27.51000000    51.47000000
   H    111.15000000   -29.86000000    50.37000000
   H    110.32000000   -29.22000000    52.97000000
   H    111.09000000   -26.73000000    52.33000000
   H    111.37000000   -26.31000000    50.08000000
   H    112.46000000   -27.71000000    50.35000000
   H    110.91000000   -27.84000000    49.54000000
   H    108.82000000   -28.38000000    51.02000000
   H    108.91000000   -27.43000000    52.49000000
   H    109.01000000   -26.57000000    51.01000000
   N    112.23000000   -28.45000000    54.44000000
   C    113.14000000   -28.15000000    55.53000000
   C    112.81000000   -26.82000000    56.19000000
   O    111.74000000   -26.27000000    55.96000000
   C    113.07000000   -29.31000000    56.52000000
   C    114.12000000   -30.38000000    56.26000000
   N    114.37000000   -30.67000000    54.98000000
   O    114.79000000   -30.93000000    57.13000000
   H    111.25000000   -28.19000000    54.55000000
   H    114.14000000   -28.00000000    55.13000000
   H    112.07000000   -29.74000000    56.55000000
   H    113.13000000   -28.97000000    57.55000000
   H    113.71000000   -30.34000000    54.28000000
   H    115.09000000   -31.30000000    54.66000000
   N    113.67000000   -26.28000000    57.05000000
   C    113.65000000   -24.95000000    57.63000000
   C    115.02000000   -24.30000000    57.69000000
   O    115.31000000   -23.67000000    58.71000000
   C    112.81000000   -24.93000000    58.91000000
   C    112.09000000   -23.63000000    59.15000000
   C    110.93000000   -23.28000000    58.45000000
   C    112.63000000   -22.87000000    60.20000000
   C    110.25000000   -22.10000000    58.77000000
   C    111.92000000   -21.70000000    60.49000000
   C    110.72000000   -21.32000000    59.85000000
   O    110.07000000   -20.19000000    60.25000000
   H    114.49000000   -26.86000000    57.18000000
   H    113.11000000   -24.35000000    56.91000000
   H    113.47000000   -25.19000000    59.73000000
   H    112.09000000   -25.75000000    58.96000000
   H    110.44000000   -23.96000000    57.77000000
   H    113.57000000   -23.07000000    60.70000000
   H    109.34000000   -21.92000000    58.22000000
   H    112.45000000   -21.02000000    61.14000000
   H    110.66000000   -19.68000000    60.81000000
   N    115.86000000   -24.41000000    56.65000000
   C    117.24000000   -23.97000000    56.61000000
   C    117.39000000   -22.46000000    56.66000000
   O    117.94000000   -21.91000000    57.62000000
   C    117.96000000   -24.66000000    55.45000000
   C    119.44000000   -24.27000000    55.46000000
   C    120.31000000   -24.98000000    54.44000000
   O    121.43000000   -25.41000000    54.80000000
   O    119.81000000   -25.17000000    53.31000000
   H    115.51000000   -24.79000000    55.79000000
   H    117.70000000   -24.35000000    57.51000000
   H    117.56000000   -24.45000000    54.46000000
   H    117.93000000   -25.75000000    55.54000000
   H    119.84000000   -24.28000000    56.47000000
   H    119.49000000   -23.21000000    55.22000000
   N    116.89000000   -21.68000000    55.70000000
   C    115.99000000   -22.02000000    54.62000000
   C    114.55000000   -21.77000000    55.04000000
   O    114.29000000   -21.53000000    56.21000000
   C    116.29000000   -21.06000000    53.46000000
   C    117.75000000   -21.03000000    53.00000000
   C    118.16000000   -22.25000000    52.19000000
   O    117.32000000   -23.00000000    51.65000000
   O    119.39000000   -22.49000000    52.15000000
   H    116.87000000   -20.69000000    55.92000000
   H    116.11000000   -23.08000000    54.40000000
   H    116.14000000   -20.06000000    53.85000000
   H    115.59000000   -21.24000000    52.65000000
   H    118.37000000   -21.09000000    53.89000000
   H    118.03000000   -20.12000000    52.48000000
   N    113.64000000   -21.88000000    54.06000000
   C    112.22000000   -21.58000000    54.11000000
   H    111.67300000   -22.46500000    54.43500000
   H    112.04400000   -20.76700000    54.81400000
   H    111.87500000   -21.28400000    53.11900000
   H    113.88000000   -22.36000000    53.21000000
  Ca    119.73400000   -24.68400000    50.81000000
   O    121.06400000   -27.08400000    51.21000000
   H    121.63400000   -27.77400000    50.86000000
   H    120.65400000   -27.49400000    51.97000000
   O    122.37400000   -23.56400000    50.77000000
   H    122.58400000   -23.55400000    51.71000000
   H    122.82400000   -22.79400000    50.42000000
   O    117.43400000   -25.78400000    49.86000000
   H    116.87400000   -25.11400000    49.46000000
   H    116.86400000   -26.54400000    49.96000000

Ca 1.00



