%chk=loop4.apoCaM-CA-Ng.Init293.run12.water3.chk
%nprocshared=20
%mem=10GB
%nosave
#b3lyp/svp scf=(tight,noincore,xqc) Test 
#IOP(5/87=12) Density=Current Pop=(MK,readradii) iop(6/33=2) iop(6/42=6)

loop4.apoCaM-CA-Ng.Init293.run12.water3 

   -3  1 
   C     47.63000000    49.41000000    32.49000000
   C     48.82000000    50.16000000    33.06000000
   O     49.35000000    49.75000000    34.09000000
   H     46.81200000    50.10900000    32.31200000
   H     47.91400000    48.93700000    31.55000000
   H     47.30700000    48.64700000    33.19800000
   N     49.30000000    51.25000000    32.46000000
   C     50.48000000    52.04000000    32.73000000
   C     51.74000000    51.19000000    32.77000000
   O     51.96000000    50.34000000    33.63000000
   C     50.32000000    52.91000000    33.98000000
   C     49.99000000    52.24000000    35.30000000
   O     48.83000000    52.27000000    35.75000000
   O     50.90000000    51.59000000    35.87000000
   H     48.70000000    51.61000000    31.73000000
   H     50.54000000    52.67000000    31.84000000
   H     49.50000000    53.58000000    33.72000000
   H     51.23000000    53.51000000    34.04000000
   N     52.74000000    51.61000000    31.98000000
   C     54.17000000    51.39000000    31.92000000
   C     55.00000000    51.36000000    33.20000000
   O     56.22000000    51.48000000    33.09000000
   C     54.43000000    50.20000000    31.01000000
   C     54.18000000    50.40000000    29.52000000
   C     53.68000000    48.96000000    31.48000000
   C     55.04000000    51.53000000    28.95000000
   H     52.37000000    52.31000000    31.36000000
   H     54.52000000    52.27000000    31.37000000
   H     55.48000000    49.93000000    31.10000000
   H     53.13000000    50.71000000    29.51000000
   H     54.50000000    49.47000000    29.04000000
   H     54.03000000    48.07000000    30.95000000
   H     53.84000000    48.91000000    32.56000000
   H     52.60000000    49.03000000    31.34000000
   H     56.09000000    51.35000000    29.17000000
   H     54.85000000    51.54000000    27.87000000
   H     54.68000000    52.52000000    29.21000000
   N     54.44000000    51.35000000    34.41000000
   C     55.12000000    51.55000000    35.68000000
   C     54.73000000    50.52000000    36.74000000
   O     53.53000000    50.28000000    36.89000000
   C     54.98000000    52.97000000    36.22000000
   C     55.12000000    54.02000000    35.13000000
   O     56.19000000    54.65000000    35.02000000
   O     54.23000000    54.18000000    34.26000000
   H     53.44000000    51.24000000    34.48000000
   H     56.20000000    51.48000000    35.61000000
   H     55.72000000    53.15000000    37.00000000
   H     53.96000000    53.04000000    36.60000000
   N     55.58000000    49.92000000    37.57000000
   C     56.99000000    50.18000000    37.78000000
   C     57.67000000    49.05000000    38.54000000
   O     56.96000000    48.15000000    38.99000000
   H     55.25000000    49.05000000    37.95000000
   H     57.10000000    51.04000000    38.44000000
   H     57.52000000    50.35000000    36.84000000
   N     59.00000000    48.97000000    38.51000000
   C     59.99000000    49.76000000    37.81000000
   C     61.34000000    49.06000000    37.82000000
   O     61.76000000    48.31000000    38.70000000
   C     60.02000000    51.19000000    38.34000000
   C     59.87000000    51.23000000    39.85000000
   O     60.93000000    51.42000000    40.49000000
   O     58.76000000    51.18000000    40.42000000
   H     59.32000000    48.17000000    39.03000000
   H     59.66000000    49.73000000    36.78000000
   H     59.17000000    51.78000000    38.00000000
   H     60.94000000    51.65000000    37.99000000
   N     62.21000000    49.23000000    36.82000000
   C     62.05000000    50.07000000    35.65000000
   C     61.84000000    49.47000000    34.27000000
   O     61.88000000    50.13000000    33.24000000
   H     63.08000000    48.73000000    36.89000000
   H     62.98000000    50.65000000    35.63000000
   H     61.26000000    50.81000000    35.72000000
   N     61.62000000    48.15000000    34.23000000
   C     61.52000000    47.28000000    33.07000000
   C     60.12000000    46.92000000    32.60000000
   O     59.85000000    47.08000000    31.41000000
   C     62.49000000    46.12000000    33.26000000
   C     62.42000000    45.33000000    34.56000000
   C     63.72000000    44.57000000    34.81000000
   N     64.27000000    44.72000000    36.02000000
   O     64.23000000    43.83000000    33.98000000
   H     61.45000000    47.69000000    35.11000000
   H     61.86000000    47.82000000    32.19000000
   H     63.43000000    46.64000000    33.07000000
   H     62.43000000    45.47000000    32.38000000
   H     61.54000000    44.70000000    34.59000000
   H     62.28000000    46.09000000    35.34000000
   H     63.87000000    45.27000000    36.76000000
   H     65.23000000    44.42000000    36.12000000
   N     59.29000000    46.38000000    33.49000000
   C     57.99000000    45.79000000    33.20000000
   C     57.85000000    44.39000000    33.78000000
   O     58.48000000    44.10000000    34.80000000
   C     56.88000000    46.70000000    33.73000000
   C     57.08000000    48.15000000    33.30000000
   C     56.73000000    46.67000000    35.25000000
   H     59.53000000    46.36000000    34.47000000
   H     57.82000000    45.78000000    32.13000000
   H     55.90000000    46.38000000    33.37000000
   H     57.29000000    48.22000000    32.23000000
   H     56.10000000    48.63000000    33.38000000
   H     57.79000000    48.71000000    33.90000000
   H     55.92000000    47.34000000    35.54000000
   H     56.40000000    45.73000000    35.68000000
   H     57.65000000    47.02000000    35.72000000
   N     57.10000000    43.56000000    33.06000000
   C     56.85000000    42.16000000    33.35000000
   C     56.09000000    41.93000000    34.65000000
   O     55.36000000    40.94000000    34.70000000
   C     58.00000000    41.24000000    32.94000000
   C     57.80000000    39.86000000    33.56000000
   N     56.88000000    39.02000000    33.09000000
   O     58.44000000    39.55000000    34.56000000
   H     56.66000000    43.87000000    32.21000000
   H     56.13000000    41.89000000    32.58000000
   H     59.00000000    41.55000000    33.24000000
   H     57.88000000    41.09000000    31.87000000
   H     56.45000000    39.30000000    32.22000000
   H     56.89000000    38.08000000    33.46000000
   N     56.27000000    42.74000000    35.69000000
   C     55.97000000    42.30000000    37.04000000
   C     54.87000000    43.22000000    37.55000000
   O     55.12000000    44.42000000    37.44000000
   C     57.23000000    42.25000000    37.91000000
   C     56.93000000    42.08000000    39.38000000
   C     56.76000000    40.80000000    39.91000000
   C     56.77000000    43.19000000    40.22000000
   C     56.61000000    40.67000000    41.30000000
   C     56.57000000    43.10000000    41.61000000
   C     56.48000000    41.80000000    42.14000000
   O     56.12000000    41.73000000    43.45000000
   H     57.02000000    43.41000000    35.65000000
   H     55.47000000    41.34000000    37.09000000
   H     57.85000000    43.12000000    37.68000000
   H     57.74000000    41.38000000    37.51000000
   H     56.91000000    39.86000000    39.40000000
   H     56.80000000    44.17000000    39.78000000
   H     56.57000000    39.69000000    41.75000000
   H     56.49000000    43.99000000    42.21000000
   H     55.75000000    42.54000000    43.80000000
   N     53.75000000    42.70000000    38.06000000
   C     52.56000000    43.43000000    38.46000000
   C     51.82000000    44.07000000    37.29000000
   O     50.89000000    44.86000000    37.44000000
   C     52.79000000    44.37000000    39.64000000
   C     53.24000000    43.68000000    40.93000000
   C     52.20000000    42.70000000    41.44000000
   O     52.31000000    41.51000000    41.09000000
   O     51.25000000    43.04000000    42.18000000
   H     53.77000000    41.70000000    38.14000000
   H     51.79000000    42.73000000    38.77000000
   H     51.86000000    44.88000000    39.88000000
   H     53.53000000    45.14000000    39.45000000
   H     53.34000000    44.53000000    41.61000000
   H     54.20000000    43.20000000    40.78000000
   N     52.11000000    43.68000000    36.04000000
   C     51.39000000    43.94000000    34.81000000
   C     50.49000000    42.82000000    34.31000000
   O     49.80000000    43.13000000    33.35000000
   C     52.32000000    44.41000000    33.69000000
   C     53.31000000    45.54000000    33.97000000
   C     52.61000000    46.78000000    34.50000000
   O     53.26000000    47.44000000    35.34000000
   O     51.53000000    47.22000000    34.06000000
   H     52.86000000    43.01000000    35.99000000
   H     50.67000000    44.74000000    34.97000000
   H     51.67000000    44.68000000    32.85000000
   H     52.89000000    43.50000000    33.52000000
   H     53.74000000    46.00000000    33.07000000
   H     54.09000000    45.32000000    34.69000000
   N     50.35000000    41.68000000    34.99000000
   C     49.23000000    40.78000000    34.78000000
   H     48.39100000    41.33700000    34.36300000
   H     49.52200000    39.99100000    34.08700000
   H     48.93500000    40.33800000    35.73200000
   H     50.94000000    41.50000000    35.79000000
  Ca     51.29000000    49.08000000    35.91000000
   O     49.20000000    49.79000000    37.39000000
   H     48.78000000    50.62000000    37.16000000
   H     48.80000000    49.54000000    38.22000000
   O     51.68000000    48.08000000    38.34000000
   H     50.88000000    47.72000000    38.72000000
   H     52.36000000    47.91000000    38.99000000
   O     49.37000000    46.82000000    36.07000000
   H     49.03000000    46.41000000    35.28000000
   H     49.70000000    46.08000000    36.60000000

Ca 1.00



