%chk=loop3.apoCaM-CA-Ng.Init31.run16.water5.chk
%nprocshared=20
%mem=10GB
%nosave
#b3lyp/svp scf=(tight,noincore,xqc) Test 
#IOP(5/87=12) Density=Current Pop=(MK,readradii) iop(6/33=2) iop(6/42=6)

loop3.apoCaM-CA-Ng.Init31.run16.water5 

   0  1 
   C     93.80000000    81.38000000    21.65000000
   C     94.12000000    80.02000000    22.26000000
   O     93.50000000    79.60000000    23.24000000
   H     92.91000000    81.79100000    22.12700000
   H     94.64100000    82.05600000    21.80700000
   H     93.61900000    81.26600000    20.58100000
   N     95.15000000    79.38000000    21.72000000
   C     95.74000000    78.19000000    22.28000000
   C     96.68000000    78.45000000    23.45000000
   O     97.06000000    77.54000000    24.19000000
   C     96.51000000    77.44000000    21.20000000
   C     97.64000000    78.23000000    20.54000000
   O     97.33000000    79.14000000    19.75000000
   O     98.85000000    78.02000000    20.74000000
   H     95.50000000    79.67000000    20.81000000
   H     94.94000000    77.53000000    22.61000000
   H     95.78000000    77.15000000    20.45000000
   H     96.85000000    76.49000000    21.60000000
   N     97.31000000    79.63000000    23.50000000
   C     98.12000000    80.00000000    24.64000000
   C     99.53000000    79.43000000    24.68000000
   O    100.44000000    80.24000000    24.83000000
   C     97.87000000    81.49000000    24.83000000
   C     96.42000000    81.95000000    24.76000000
   C     95.47000000    81.19000000    25.69000000
   C     94.03000000    81.66000000    25.57000000
   N     93.10000000    80.87000000    26.39000000
   H     97.31000000    80.28000000    22.73000000
   H     97.66000000    79.49000000    25.49000000
   H     98.45000000    82.07000000    24.12000000
   H     98.19000000    81.81000000    25.83000000
   H     96.01000000    81.95000000    23.75000000
   H     96.52000000    82.99000000    25.07000000
   H     95.75000000    81.39000000    26.73000000
   H     95.49000000    80.11000000    25.55000000
   H     93.61000000    81.73000000    24.57000000
   H     94.13000000    82.65000000    26.01000000
   H     93.00000000    79.88000000    26.18000000
   H     93.45000000    80.81000000    27.33000000
   H     92.20000000    81.32000000    26.43000000
   N     99.67000000    78.10000000    24.70000000
   C    100.78000000    77.17000000    24.72000000
   C    100.56000000    75.84000000    24.01000000
   O    101.13000000    74.83000000    24.39000000
   C    101.13000000    76.86000000    26.17000000
   C     99.93000000    76.31000000    26.93000000
   O     99.02000000    77.05000000    27.36000000
   O     99.98000000    75.11000000    27.27000000
   H     98.78000000    77.66000000    24.54000000
   H    101.59000000    77.73000000    24.24000000
   H    101.41000000    77.72000000    26.77000000
   H    101.96000000    76.15000000    26.24000000
   N     99.74000000    75.82000000    22.95000000
   C     99.28000000    74.65000000    22.23000000
   C    100.24000000    74.31000000    21.10000000
   O    101.18000000    75.03000000    20.77000000
   H     99.46000000    76.73000000    22.63000000
   H     98.30000000    74.70000000    21.75000000
   H     99.34000000    73.86000000    22.98000000
   N    100.07000000    73.18000000    20.41000000
   C     99.23000000    72.01000000    20.57000000
   C     98.56000000    71.58000000    19.27000000
   O     98.92000000    70.61000000    18.60000000
   C     99.99000000    70.84000000    21.19000000
   C    100.44000000    71.21000000    22.60000000
   N     99.41000000    71.36000000    23.43000000
   O    101.62000000    71.36000000    22.93000000
   H    100.75000000    73.09000000    19.66000000
   H     98.37000000    72.32000000    21.16000000
   H    100.80000000    70.52000000    20.53000000
   H     99.29000000    70.01000000    21.13000000
   H     98.47000000    71.22000000    23.10000000
   H     99.70000000    71.74000000    24.32000000
   N     97.67000000    72.44000000    18.76000000
   C     96.86000000    73.47000000    19.40000000
   C     95.94000000    73.09000000    20.55000000
   O     95.78000000    73.79000000    21.55000000
   H     97.36000000    72.13000000    17.85000000
   H     96.24000000    73.84000000    18.58000000
   H     97.51000000    74.28000000    19.72000000
   N     95.51000000    71.83000000    20.55000000
   C     94.74000000    71.27000000    21.64000000
   C     95.62000000    70.88000000    22.83000000
   O     96.81000000    70.71000000    22.58000000
   C     93.97000000    70.10000000    21.05000000
   C     92.92000000    70.54000000    20.06000000
   C     91.88000000    71.41000000    20.39000000
   C     92.95000000    69.94000000    18.79000000
   C     90.93000000    71.77000000    19.42000000
   C     92.00000000    70.28000000    17.82000000
   C     91.01000000    71.23000000    18.13000000
   O     90.15000000    71.70000000    17.18000000
   H     95.82000000    71.20000000    19.82000000
   H     94.05000000    72.03000000    22.00000000
   H     93.59000000    69.55000000    21.92000000
   H     94.71000000    69.42000000    20.64000000
   H     91.84000000    71.75000000    21.41000000
   H     93.73000000    69.31000000    18.40000000
   H     90.11000000    72.42000000    19.70000000
   H     92.02000000    69.94000000    16.79000000
   H     90.12000000    71.23000000    16.34000000
   N     95.08000000    70.98000000    24.05000000
   C     95.77000000    71.40000000    25.25000000
   C     95.87000000    70.22000000    26.21000000
   O     96.77000000    70.10000000    27.03000000
   C     95.26000000    72.67000000    25.92000000
   C     95.54000000    73.99000000    25.20000000
   C     93.75000000    72.65000000    26.11000000
   C     97.00000000    74.26000000    24.84000000
   H     94.10000000    71.20000000    24.11000000
   H     96.82000000    71.59000000    25.03000000
   H     95.75000000    72.78000000    26.89000000
   H     95.19000000    74.77000000    25.88000000
   H     94.96000000    73.99000000    24.28000000
   H     93.41000000    73.58000000    26.57000000
   H     93.26000000    72.56000000    25.14000000
   H     93.50000000    71.78000000    26.72000000
   H     97.53000000    74.32000000    25.79000000
   H     97.31000000    73.49000000    24.13000000
   H     97.10000000    75.19000000    24.28000000
   N     94.96000000    69.24000000    26.09000000
   C     94.90000000    68.16000000    27.06000000
   C     93.88000000    68.43000000    28.15000000
   O     92.77000000    68.92000000    27.94000000
   C     94.53000000    66.84000000    26.40000000
   O     95.18000000    66.67000000    25.16000000
   H     94.20000000    69.42000000    25.45000000
   H     95.87000000    67.98000000    27.51000000
   H     93.46000000    66.75000000    26.19000000
   H     94.77000000    66.00000000    27.06000000
   H     96.12000000    66.57000000    25.35000000
   N     94.14000000    68.01000000    29.39000000
   C     93.18000000    67.95000000    30.48000000
   C     92.98000000    69.24000000    31.24000000
   O     93.88000000    70.07000000    31.35000000
   C     93.74000000    66.87000000    31.41000000
   H     95.07000000    67.75000000    29.69000000
   H     92.22000000    67.56000000    30.15000000
   H     93.88000000    65.96000000    30.83000000
   H     94.74000000    67.06000000    31.81000000
   H     93.02000000    66.82000000    32.23000000
   N     91.79000000    69.43000000    31.83000000
   C     91.53000000    70.46000000    32.81000000
   C     91.88000000    71.89000000    32.39000000
   O     92.39000000    72.71000000    33.15000000
   C     92.18000000    70.08000000    34.14000000
   H     91.14000000    68.66000000    31.83000000
   H     90.45000000    70.42000000    32.94000000
   H     92.01000000    69.08000000    34.54000000
   H     93.26000000    70.08000000    33.96000000
   H     91.90000000    70.86000000    34.85000000
   N     91.67000000    72.11000000    31.09000000
   C     91.95000000    73.40000000    30.48000000
   C     90.81000000    73.82000000    29.58000000
   O     90.65000000    75.03000000    29.37000000
   C     93.27000000    73.47000000    29.72000000
   C     94.41000000    73.74000000    30.70000000
   C     95.73000000    73.89000000    29.96000000
   O     95.79000000    74.48000000    28.86000000
   O     96.77000000    73.61000000    30.60000000
   H     91.54000000    71.37000000    30.42000000
   H     91.99000000    74.15000000    31.27000000
   H     93.22000000    74.29000000    28.99000000
   H     93.39000000    72.51000000    29.21000000
   H     94.62000000    72.99000000    31.47000000
   H     94.14000000    74.73000000    31.05000000
   N     90.03000000    72.90000000    29.01000000
   C     88.88000000    73.29000000    28.21000000
   H     88.08100000    73.63300000    28.86700000
   H     89.16400000    74.09600000    27.53300000
   H     88.53200000    72.43400000    27.63200000
   H     90.22000000    71.92000000    29.13000000
  Ca     98.44000000    75.21000000    29.46000000
   O    100.53800000    76.83000000    30.30000000
   H    100.65800000    77.57000000    30.91000000
   H    101.41800000    76.63000000    30.00000000
   O     97.00000000    76.73000000    31.16000000
   H     96.08000000    76.94000000    31.32000000
   H     97.45000000    76.97000000    31.97000000
   O    100.83800000    73.84000000    29.95000000
   H    101.07800000    73.06000000    30.46000000
   H    101.38800000    73.79000000    29.17000000
   O     98.05000000    72.80000000    28.02000000
   H     97.68000000    72.15000000    28.61000000
   H     98.37000000    72.29000000    27.27000000
   O     99.38000000    75.06000000    32.32000000
   H     99.73000000    75.83000000    32.77000000
   H    100.16000000    74.60000000    32.00000000

Ca 1.00



