%chk=loop2.holoCaM.run6.water0.chk
%nprocshared=20
%mem=10GB
%nosave
#b3lyp/svp scf=(tight,noincore,xqc) Test 
#IOP(5/87=12) Density=Current Pop=(MK,readradii) iop(6/33=2) iop(6/42=6)

loop2.holoCaM.run6.water0 

   -2  1 
   C     34.05000000    22.63000000    11.60000000
   C     33.32000000    23.00000000    10.31000000
   O     33.15000000    24.21000000    10.17000000
   H     34.95000000    23.23700000    11.69400000
   H     33.39700000    22.81400000    12.45300000
   H     34.32500000    21.57600000    11.57300000
   N     32.82000000    22.04000000     9.53000000
   C     32.03000000    22.28000000     8.33000000
   C     30.77000000    23.10000000     8.52000000
   O     29.96000000    22.73000000     9.37000000
   C     31.76000000    20.97000000     7.59000000
   C     31.09000000    21.26000000     6.25000000
   O     31.82000000    21.43000000     5.25000000
   O     29.85000000    21.26000000     6.16000000
   H     33.08000000    21.09000000     9.74000000
   H     32.69000000    22.87000000     7.69000000
   H     31.02000000    20.35000000     8.11000000
   H     32.71000000    20.46000000     7.45000000
   N     30.51000000    24.09000000     7.66000000
   C     29.37000000    24.98000000     7.82000000
   C     28.57000000    25.21000000     6.54000000
   O     27.69000000    26.06000000     6.61000000
   C     29.85000000    26.26000000     8.50000000
   H     31.15000000    24.24000000     6.89000000
   H     28.62000000    24.56000000     8.48000000
   H     30.50000000    26.85000000     7.86000000
   H     29.02000000    26.92000000     8.75000000
   H     30.37000000    26.04000000     9.43000000
   N     28.82000000    24.43000000     5.49000000
   C     28.25000000    24.64000000     4.17000000
   C     27.71000000    23.43000000     3.41000000
   O     26.92000000    23.55000000     2.47000000
   C     29.23000000    25.35000000     3.25000000
   C     30.58000000    24.65000000     3.12000000
   O     31.63000000    25.30000000     3.32000000
   O     30.69000000    23.41000000     3.09000000
   H     29.52000000    23.71000000     5.62000000
   H     27.39000000    25.31000000     4.22000000
   H     29.37000000    26.35000000     3.65000000
   H     28.77000000    25.47000000     2.27000000
   N     28.04000000    22.24000000     3.92000000
   C     27.66000000    20.92000000     3.46000000
   C     28.55000000    20.38000000     2.35000000
   O     28.20000000    19.36000000     1.77000000
   H     28.55000000    22.27000000     4.79000000
   H     26.60000000    20.90000000     3.19000000
   H     27.67000000    20.32000000     4.36000000
   N     29.75000000    20.92000000     2.11000000
   C     30.50000000    20.45000000     0.96000000
   C     31.38000000    19.24000000     1.22000000
   O     32.13000000    18.83000000     0.34000000
   C     31.32000000    21.54000000     0.28000000
   C     32.52000000    22.07000000     1.06000000
   N     33.02000000    23.12000000     0.41000000
   O     33.04000000    21.59000000     2.06000000
   H     30.11000000    21.71000000     2.62000000
   H     29.76000000    20.18000000     0.20000000
   H     30.63000000    22.38000000     0.16000000
   H     31.71000000    21.16000000    -0.66000000
   H     32.50000000    23.40000000    -0.41000000
   H     33.81000000    23.61000000     0.81000000
   N     31.55000000    18.70000000     2.43000000
   C     32.47000000    17.65000000     2.80000000
   C     33.96000000    17.93000000     2.88000000
   O     34.74000000    16.98000000     2.98000000
   H     31.01000000    19.11000000     3.18000000
   H     32.37000000    16.80000000     2.12000000
   H     32.14000000    17.23000000     3.75000000
   N     34.39000000    19.19000000     2.88000000
   C     35.77000000    19.62000000     2.99000000
   C     35.95000000    20.83000000     3.90000000
   O     34.97000000    21.51000000     4.19000000
   C     36.41000000    19.93000000     1.64000000
   C     36.46000000    18.64000000     0.83000000
   O     35.46000000    20.64000000     0.86000000
   H     33.68000000    19.91000000     2.83000000
   H     36.37000000    18.80000000     3.37000000
   H     37.41000000    20.36000000     1.66000000
   H     34.60000000    20.24000000     1.02000000
   H     36.75000000    19.02000000    -0.15000000
   H     37.25000000    18.04000000     1.27000000
   H     35.46000000    18.23000000     0.79000000
   N     37.18000000    21.11000000     4.35000000
   C     37.57000000    22.35000000     4.98000000
   C     37.80000000    23.49000000     4.00000000
   O     38.52000000    23.46000000     3.00000000
   C     38.71000000    22.13000000     5.97000000
   C     38.24000000    21.42000000     7.24000000
   C     39.47000000    23.40000000     6.35000000
   C     39.44000000    20.68000000     7.83000000
   H     37.89000000    20.42000000     4.16000000
   H     36.70000000    22.71000000     5.53000000
   H     39.42000000    21.46000000     5.50000000
   H     37.41000000    20.73000000     7.09000000
   H     37.90000000    22.11000000     8.01000000
   H     39.99000000    23.65000000     5.42000000
   H     38.75000000    24.16000000     6.64000000
   H     40.17000000    23.23000000     7.17000000
   H     40.28000000    21.37000000     7.83000000
   H     39.13000000    20.37000000     8.82000000
   H     39.72000000    19.86000000     7.16000000
   N     37.03000000    24.55000000     4.26000000
   C     37.23000000    25.84000000     3.64000000
   C     38.15000000    26.73000000     4.47000000
   O     38.46000000    26.42000000     5.61000000
   C     35.93000000    26.54000000     3.27000000
   C     35.17000000    25.76000000     2.19000000
   O     35.14000000    26.24000000     1.04000000
   O     34.46000000    24.77000000     2.44000000
   H     36.40000000    24.48000000     5.05000000
   H     37.73000000    25.60000000     2.70000000
   H     36.23000000    27.53000000     2.94000000
   H     35.25000000    26.67000000     4.11000000
   N     38.54000000    27.91000000     3.97000000
   C     39.48000000    28.79000000     4.63000000
   C     38.93000000    29.39000000     5.91000000
   O     39.71000000    29.67000000     6.82000000
   C     39.91000000    29.93000000     3.72000000
   C     41.07000000    30.72000000     4.27000000
   C     42.09000000    30.26000000     5.11000000
   C     41.12000000    32.07000000     3.90000000
   C     43.03000000    31.12000000     5.69000000
   C     42.06000000    32.98000000     4.40000000
   C     43.04000000    32.46000000     5.26000000
   H     38.25000000    28.10000000     3.02000000
   H     40.31000000    28.12000000     4.86000000
   H     38.98000000    30.47000000     3.59000000
   H     40.30000000    29.56000000     2.77000000
   H     42.16000000    29.22000000     5.41000000
   H     40.39000000    32.50000000     3.23000000
   H     43.77000000    30.71000000     6.36000000
   H     42.09000000    34.01000000     4.09000000
   H     43.81000000    33.06000000     5.72000000
   N     37.62000000    29.55000000     6.12000000
   C     37.16000000    29.92000000     7.44000000
   C     37.30000000    28.79000000     8.46000000
   O     37.72000000    29.12000000     9.57000000
   C     35.72000000    30.39000000     7.30000000
   C     35.53000000    30.66000000     5.81000000
   C     36.55000000    29.73000000     5.16000000
   H     37.67000000    30.80000000     7.82000000
   H     34.96000000    29.69000000     7.66000000
   H     35.60000000    31.36000000     7.79000000
   H     34.52000000    30.53000000     5.42000000
   H     35.79000000    31.71000000     5.63000000
   H     35.98000000    28.85000000     4.87000000
   H     36.87000000    30.30000000     4.28000000
   N     36.89000000    27.58000000     8.07000000
   C     36.72000000    26.44000000     8.94000000
   C     38.10000000    25.97000000     9.38000000
   O     38.20000000    25.41000000    10.47000000
   C     35.99000000    25.30000000     8.24000000
   C     34.64000000    25.70000000     7.65000000
   C     34.03000000    24.74000000     6.65000000
   O     34.79000000    24.00000000     5.98000000
   O     32.83000000    24.78000000     6.27000000
   H     36.63000000    27.54000000     7.09000000
   H     36.19000000    26.82000000     9.81000000
   H     35.72000000    24.47000000     8.90000000
   H     36.68000000    25.04000000     7.43000000
   H     34.71000000    26.69000000     7.19000000
   H     33.94000000    25.88000000     8.46000000
   N     39.14000000    26.24000000     8.60000000
   C     40.53000000    26.02000000     8.97000000
   H     41.11600000    26.90400000     8.71900000
   H     40.59600000    25.83300000    10.04200000
   H     40.92000000    25.16000000     8.42600000
   H     39.08000000    26.72000000     7.72000000
  Ca     33.12000000    23.35000000     4.10000000

Ca 1.00



