%chk=loop2.apoCaM-CA-Ng.Init293.run68.water6.chk
%nprocshared=20
%mem=10GB
%nosave
#b3lyp/svp scf=(tight,noincore,xqc) Test 
#IOP(5/87=12) Density=Current Pop=(MK,readradii) iop(6/33=2) iop(6/42=6)

loop2.apoCaM-CA-Ng.Init293.run68.water6 

   -2  1 
   C    104.88000000    73.84000000    52.69000000
   C    105.18000000    74.74000000    53.87000000
   O    104.52000000    75.76000000    54.06000000
   H    104.05000000    74.25600000    52.11900000
   H    105.76100000    73.77100000    52.05200000
   H    104.61200000    72.84600000    53.04900000
   N    106.22000000    74.43000000    54.66000000
   C    106.64000000    75.17000000    55.83000000
   C    107.23000000    76.51000000    55.41000000
   O    106.96000000    77.51000000    56.07000000
   C    107.74000000    74.35000000    56.49000000
   C    108.12000000    75.06000000    57.78000000
   O    109.33000000    75.32000000    57.96000000
   O    107.28000000    75.43000000    58.63000000
   H    106.71000000    73.57000000    54.46000000
   H    105.78000000    75.42000000    56.46000000
   H    108.58000000    74.29000000    55.80000000
   H    107.39000000    73.36000000    56.80000000
   N    108.07000000    76.51000000    54.37000000
   C    108.52000000    77.63000000    53.56000000
   C    107.37000000    78.58000000    53.25000000
   O    107.57000000    79.79000000    53.17000000
   C    109.78000000    78.15000000    54.25000000
   H    108.39000000    75.58000000    54.16000000
   H    108.91000000    77.25000000    52.62000000
   H    110.55000000    77.42000000    53.99000000
   H    110.10000000    79.08000000    53.77000000
   H    109.63000000    78.30000000    55.32000000
   N    106.14000000    78.09000000    53.10000000
   C    104.92000000    78.83000000    52.85000000
   C    104.66000000    80.01000000    53.78000000
   O    104.02000000    81.02000000    53.49000000
   C    104.68000000    79.26000000    51.40000000
   C    104.84000000    78.17000000    50.35000000
   O    105.42000000    77.09000000    50.58000000
   O    104.40000000    78.44000000    49.21000000
   H    106.01000000    77.11000000    53.30000000
   H    104.07000000    78.21000000    53.12000000
   H    105.37000000    80.07000000    51.17000000
   H    103.67000000    79.62000000    51.25000000
   N    105.20000000    79.89000000    55.00000000
   C    105.38000000    80.86000000    56.06000000
   C    104.05000000    81.32000000    56.65000000
   O    102.97000000    80.87000000    56.26000000
   H    105.70000000    79.03000000    55.18000000
   H    105.91000000    81.72000000    55.64000000
   H    106.01000000    80.57000000    56.89000000
   N    104.11000000    82.29000000    57.56000000
   C    102.93000000    82.95000000    58.07000000
   C    101.80000000    82.10000000    58.62000000
   O    100.60000000    82.26000000    58.42000000
   C    102.39000000    83.99000000    57.09000000
   C    101.78000000    85.24000000    57.73000000
   N    102.23000000    86.44000000    57.37000000
   O    100.94000000    85.10000000    58.61000000
   H    105.02000000    82.71000000    57.70000000
   H    103.22000000    83.57000000    58.92000000
   H    101.64000000    83.50000000    56.47000000
   H    103.29000000    84.27000000    56.55000000
   H    103.06000000    86.60000000    56.80000000
   H    101.64000000    87.22000000    57.59000000
   N    102.14000000    81.04000000    59.37000000
   C    101.23000000    80.11000000    60.00000000
   C    101.06000000    78.82000000    59.22000000
   O    100.70000000    77.83000000    59.86000000
   H    103.13000000    80.84000000    59.40000000
   H    100.27000000    80.59000000    60.23000000
   H    101.60000000    79.74000000    60.95000000
   N    101.28000000    78.80000000    57.90000000
   C    101.08000000    77.67000000    57.02000000
   C     99.85000000    77.66000000    56.12000000
   O     99.50000000    78.76000000    55.70000000
   C    102.31000000    77.46000000    56.14000000
   C    103.65000000    77.61000000    56.85000000
   O    102.23000000    76.10000000    55.77000000
   H    101.51000000    79.65000000    57.40000000
   H    101.12000000    76.77000000    57.63000000
   H    102.34000000    78.03000000    55.21000000
   H    102.89000000    76.07000000    55.08000000
   H    103.72000000    78.50000000    57.48000000
   H    103.84000000    76.78000000    57.53000000
   H    104.48000000    77.66000000    56.15000000
   N     99.21000000    76.53000000    55.84000000
   C     98.42000000    76.33000000    54.64000000
   C     99.05000000    75.90000000    53.32000000
   O    100.23000000    75.56000000    53.32000000
   C     97.12000000    75.60000000    54.99000000
   C     97.48000000    74.15000000    55.31000000
   C     96.41000000    76.29000000    56.15000000
   C     96.38000000    73.27000000    55.90000000
   H     99.48000000    75.68000000    56.32000000
   H     98.02000000    77.32000000    54.43000000
   H     96.40000000    75.61000000    54.17000000
   H     98.40000000    74.03000000    55.88000000
   H     97.73000000    73.68000000    54.36000000
   H     96.99000000    76.37000000    57.07000000
   H     96.25000000    77.32000000    55.82000000
   H     95.45000000    75.85000000    56.40000000
   H     96.84000000    72.28000000    55.78000000
   H     96.23000000    73.53000000    56.95000000
   H     95.48000000    73.50000000    55.34000000
   N     98.38000000    75.87000000    52.17000000
   C     98.93000000    75.83000000    50.83000000
   C     98.01000000    76.66000000    49.95000000
   O     96.91000000    76.24000000    49.61000000
   C     98.97000000    74.40000000    50.30000000
   C     99.40000000    74.28000000    48.84000000
   O    100.58000000    74.63000000    48.60000000
   O     98.60000000    73.82000000    48.00000000
   H     97.38000000    75.97000000    52.25000000
   H     99.94000000    76.24000000    50.87000000
   H     97.95000000    74.06000000    50.44000000
   H     99.65000000    73.85000000    50.96000000
   N     98.37000000    77.94000000    49.79000000
   C     97.59000000    78.94000000    49.09000000
   C     97.82000000    80.25000000    49.83000000
   O     98.44000000    81.18000000    49.31000000
   C     98.01000000    78.99000000    47.62000000
   C     97.15000000    79.82000000    46.70000000
   C     97.71000000    80.92000000    46.04000000
   C     95.83000000    79.39000000    46.49000000
   C     96.87000000    81.70000000    45.24000000
   C     95.02000000    80.14000000    45.64000000
   C     95.53000000    81.31000000    45.07000000
   H     99.21000000    78.29000000    50.22000000
   H     96.53000000    78.70000000    49.15000000
   H     98.05000000    77.94000000    47.33000000
   H     99.04000000    79.34000000    47.55000000
   H     98.75000000    81.19000000    46.16000000
   H     95.52000000    78.40000000    46.79000000
   H     97.22000000    82.60000000    44.77000000
   H     94.07000000    79.79000000    45.27000000
   H     94.91000000    81.84000000    44.36000000
   N     97.28000000    80.44000000    51.03000000
   C     96.87000000    79.37000000    51.92000000
   C     95.44000000    78.97000000    51.57000000
   O     95.19000000    77.78000000    51.42000000
   C     97.00000000    79.94000000    53.33000000
   C     97.07000000    81.45000000    53.19000000
   C     97.68000000    81.60000000    51.80000000
   H     97.54000000    78.52000000    51.86000000
   H     96.08000000    79.63000000    53.83000000
   H     97.70000000    79.42000000    53.99000000
   H     96.06000000    81.87000000    53.20000000
   H     97.73000000    81.86000000    53.96000000
   H     97.32000000    82.53000000    51.36000000
   H     98.76000000    81.72000000    51.90000000
   N     94.55000000    79.96000000    51.46000000
   C     93.18000000    79.97000000    50.98000000
   C     92.33000000    78.75000000    51.30000000
   O     91.84000000    78.09000000    50.38000000
   C     93.23000000    80.27000000    49.48000000
   C     94.01000000    81.53000000    49.12000000
   C     93.42000000    82.79000000    49.73000000
   O     92.38000000    83.33000000    49.28000000
   O     93.96000000    83.23000000    50.76000000
   H     94.91000000    80.89000000    51.63000000
   H     92.80000000    80.89000000    51.42000000
   H     92.23000000    80.44000000    49.09000000
   H     93.68000000    79.38000000    49.04000000
   H     94.02000000    81.63000000    48.03000000
   H     95.06000000    81.52000000    49.41000000
   N     92.34000000    78.37000000    52.58000000
   C     92.02000000    77.05000000    53.06000000
   H     91.03600000    76.75900000    52.69200000
   H     92.76600000    76.34100000    52.70000000
   H     92.01400000    77.05100000    54.15000000
   H     92.93000000    78.89000000    53.22000000
  Ca    105.47400000    76.03000000    48.29000000
   O    107.08400000    74.86000000    46.45000000
   H    107.63400000    74.84000000    45.66000000
   H    107.41400000    74.13000000    46.98000000
   O    103.40400000    76.63000000    46.51000000
   H    102.46400000    76.66000000    46.67000000
   H    103.48400000    76.42000000    45.58000000
   O    108.30400000    76.32000000    48.88000000
   H    108.94400000    75.61000000    48.82000000
   H    108.83400000    77.12000000    48.84000000
   O    103.00400000    75.40000000    49.37000000
   H    102.69400000    75.70000000    50.23000000
   H    102.24400000    74.98000000    48.97000000
   O    106.62400000    78.34000000    47.25000000
   H    107.39400000    78.81000000    47.56000000
   H    106.51400000    78.64000000    46.34000000
   O    104.38400000    73.82000000    47.21000000
   H    104.86400000    73.31000000    46.55000000
   H    103.51400000    73.40000000    47.24000000

Ca 1.00



