%chk=loop1.apoCaM-CA-Ng.Init295.run22.water5.chk
%nprocshared=20
%mem=10GB
%nosave
#b3lyp/svp scf=(tight,noincore,xqc) Test 
#IOP(5/87=12) Density=Current Pop=(MK,readradii) iop(6/33=2) iop(6/42=6)

loop1.apoCaM-CA-Ng.Init295.run22.water5 

   0  1 
   C     62.88000000    56.38000000    52.14000000
   C     61.59000000    55.84000000    51.54000000
   O     60.98000000    54.98000000    52.17000000
   H     63.63400000    56.46900000    51.35800000
   H     62.69500000    57.36000000    52.57900000
   H     63.23600000    55.69700000    52.91100000
   N     61.18000000    56.31000000    50.36000000
   C     60.03000000    55.79000000    49.63000000
   C     58.77000000    55.41000000    50.40000000
   O     58.32000000    54.27000000    50.33000000
   C     60.58000000    54.70000000    48.72000000
   C     59.68000000    54.12000000    47.63000000
   O     60.05000000    53.11000000    47.01000000
   O     58.61000000    54.72000000    47.37000000
   H     61.70000000    57.10000000    50.00000000
   H     59.73000000    56.62000000    48.99000000
   H     60.83000000    53.84000000    49.35000000
   H     61.51000000    54.94000000    48.22000000
   N     58.35000000    56.29000000    51.31000000
   C     57.26000000    56.03000000    52.24000000
   C     55.97000000    56.81000000    52.05000000
   O     54.95000000    56.65000000    52.72000000
   C     57.80000000    56.10000000    53.66000000
   C     58.42000000    57.46000000    53.99000000
   C     58.64000000    57.53000000    55.49000000
   C     59.48000000    58.80000000    55.59000000
   N     59.39000000    59.40000000    56.94000000
   H     58.81000000    57.18000000    51.33000000
   H     56.96000000    54.99000000    52.22000000
   H     58.41000000    55.21000000    53.83000000
   H     57.00000000    55.95000000    54.39000000
   H     57.76000000    58.26000000    53.65000000
   H     59.38000000    57.57000000    53.49000000
   H     59.22000000    56.63000000    55.73000000
   H     57.65000000    57.70000000    55.91000000
   H     59.06000000    59.49000000    54.87000000
   H     60.53000000    58.60000000    55.40000000
   H     58.44000000    59.63000000    57.18000000
   H     59.76000000    58.74000000    57.61000000
   H     59.93000000    60.25000000    56.99000000
   N     55.97000000    57.65000000    51.01000000
   C     54.81000000    58.44000000    50.65000000
   C     53.95000000    57.82000000    49.56000000
   O     52.98000000    58.39000000    49.05000000
   C     55.41000000    59.78000000    50.22000000
   C     54.35000000    60.83000000    49.93000000
   O     53.88000000    60.98000000    48.78000000
   O     53.94000000    61.58000000    50.85000000
   H     56.69000000    57.63000000    50.31000000
   H     54.21000000    58.59000000    51.54000000
   H     56.07000000    59.72000000    49.36000000
   H     56.11000000    60.09000000    51.00000000
   N     54.49000000    56.74000000    48.99000000
   C     53.81000000    55.86000000    48.06000000
   C     53.98000000    56.23000000    46.60000000
   O     54.37000000    55.34000000    45.85000000
   H     55.43000000    56.62000000    49.34000000
   H     52.74000000    55.96000000    48.20000000
   H     53.90000000    54.79000000    48.27000000
   N     53.61000000    57.45000000    46.21000000
   C     53.37000000    57.87000000    44.84000000
   C     54.25000000    59.01000000    44.35000000
   O     54.05000000    59.54000000    43.26000000
   C     51.89000000    58.03000000    44.52000000
   C     51.05000000    58.90000000    45.44000000
   O     49.86000000    59.12000000    45.16000000
   O     51.64000000    59.53000000    46.35000000
   H     53.28000000    58.08000000    46.92000000
   H     53.70000000    57.07000000    44.17000000
   H     51.37000000    57.07000000    44.58000000
   H     51.80000000    58.43000000    43.51000000
   N     55.22000000    59.39000000    45.18000000
   C     56.15000000    60.45000000    44.84000000
   C     57.15000000    60.64000000    45.97000000
   O     57.18000000    59.86000000    46.92000000
   H     55.33000000    58.86000000    46.04000000
   H     55.63000000    61.40000000    44.72000000
   H     56.73000000    60.31000000    43.93000000
   N     57.92000000    61.73000000    45.99000000
   C     58.83000000    62.01000000    47.08000000
   C     59.95000000    62.90000000    46.56000000
   O     59.80000000    63.70000000    45.64000000
   C     58.08000000    62.57000000    48.28000000
   C     58.90000000    62.95000000    49.51000000
   O     57.44000000    63.78000000    47.95000000
   H     57.86000000    62.43000000    45.26000000
   H     59.31000000    61.08000000    47.38000000
   H     57.29000000    61.91000000    48.66000000
   H     56.52000000    63.52000000    47.81000000
   H     58.23000000    63.44000000    50.22000000
   H     59.34000000    62.08000000    50.00000000
   H     59.70000000    63.63000000    49.20000000
   N     61.17000000    62.83000000    47.10000000
   C     62.36000000    63.64000000    46.90000000
   C     62.87000000    63.54000000    45.47000000
   O     63.41000000    64.50000000    44.93000000
   C     63.34000000    63.36000000    48.04000000
   C     62.69000000    63.58000000    49.40000000
   C     64.62000000    64.18000000    48.06000000
   C     63.59000000    63.29000000    50.61000000
   H     61.23000000    62.19000000    47.88000000
   H     62.08000000    64.69000000    46.98000000
   H     63.54000000    62.29000000    48.07000000
   H     61.84000000    62.92000000    49.52000000
   H     62.31000000    64.60000000    49.40000000
   H     65.43000000    63.67000000    48.58000000
   H     64.78000000    64.44000000    47.01000000
   H     64.45000000    65.12000000    48.58000000
   H     64.51000000    63.86000000    50.65000000
   H     62.99000000    63.57000000    51.48000000
   H     63.81000000    62.25000000    50.87000000
   N     62.80000000    62.39000000    44.80000000
   C     63.25000000    62.14000000    43.44000000
   C     63.69000000    60.70000000    43.29000000
   O     63.32000000    59.79000000    44.03000000
   C     62.12000000    62.52000000    42.49000000
   C     62.53000000    62.70000000    41.03000000
   O     61.09000000    61.57000000    42.37000000
   H     62.29000000    61.70000000    45.34000000
   H     64.05000000    62.86000000    43.23000000
   H     61.62000000    63.37000000    42.95000000
   H     60.44000000    61.95000000    41.78000000
   H     63.26000000    63.50000000    40.92000000
   H     62.83000000    61.78000000    40.53000000
   H     61.71000000    63.18000000    40.49000000
   N     64.47000000    60.39000000    42.24000000
   C     64.78000000    59.08000000    41.73000000
   C     66.27000000    58.82000000    41.59000000
   O     66.62000000    57.64000000    41.52000000
   C     63.99000000    58.72000000    40.48000000
   C     64.09000000    57.25000000    40.07000000
   O     64.20000000    59.67000000    39.46000000
   H     64.75000000    61.16000000    41.64000000
   H     64.52000000    58.31000000    42.46000000
   H     62.97000000    58.83000000    40.84000000
   H     63.38000000    59.62000000    38.96000000
   H     65.03000000    57.15000000    39.51000000
   H     63.98000000    56.70000000    41.00000000
   H     63.32000000    56.88000000    39.39000000
   N     67.12000000    59.83000000    41.38000000
   C     68.54000000    59.69000000    41.16000000
   C     69.34000000    60.61000000    42.07000000
   O     69.16000000    61.82000000    42.11000000
   C     68.89000000    60.14000000    39.74000000
   C     68.16000000    59.23000000    38.77000000
   C     68.86000000    59.30000000    37.41000000
   C     68.02000000    58.53000000    36.40000000
   N     68.70000000    58.37000000    35.10000000
   H     66.72000000    60.74000000    41.19000000
   H     68.76000000    58.63000000    41.23000000
   H     69.95000000    59.87000000    39.69000000
   H     68.70000000    61.20000000    39.57000000
   H     67.17000000    59.65000000    38.60000000
   H     68.15000000    58.18000000    39.06000000
   H     69.81000000    58.75000000    37.47000000
   H     69.00000000    60.29000000    36.99000000
   H     67.13000000    59.12000000    36.19000000
   H     67.78000000    57.56000000    36.83000000
   H     68.80000000    59.27000000    34.66000000
   H     69.62000000    57.99000000    35.23000000
   H     68.25000000    57.77000000    34.41000000
   N     70.25000000    59.96000000    42.81000000
   C     71.23000000    60.84000000    43.41000000
   C     70.82000000    61.52000000    44.71000000
   O     71.35000000    62.61000000    44.90000000
   C     72.56000000    60.12000000    43.62000000
   C     73.22000000    59.30000000    42.51000000
   C     73.23000000    60.09000000    41.21000000
   O     73.95000000    61.11000000    41.17000000
   O     72.50000000    59.80000000    40.24000000
   H     70.44000000    58.97000000    42.79000000
   H     71.55000000    61.55000000    42.65000000
   H     72.37000000    59.46000000    44.47000000
   H     73.35000000    60.85000000    43.83000000
   H     72.69000000    58.35000000    42.40000000
   H     74.22000000    58.97000000    42.76000000
   N     69.97000000    61.04000000    45.62000000
   C     69.47000000    59.70000000    45.79000000
   H     68.50000000    59.61000000    45.30100000
   H     70.16800000    58.99200000    45.34400000
   H     69.36100000    59.48400000    46.85300000
   H     69.89000000    61.62000000    46.45000000
  Ca     51.28000000    60.48000000    48.65000000
   O     48.61000000    60.71000000    48.50000000
   H     48.13000000    60.67000000    47.68000000
   H     47.94000000    60.89000000    49.16000000
   O     51.42000000    60.47000000    51.35000000
   H     51.13000000    60.12000000    52.19000000
   H     52.32000000    60.75000000    51.51000000
   O     50.65000000    62.86000000    49.93000000
   H     50.10000000    62.90000000    50.71000000
   H     51.35000000    63.49000000    50.10000000
   O     51.35000000    62.49000000    46.95000000
   H     52.06000000    62.82000000    46.40000000
   H     50.56000000    62.59000000    46.42000000
   O     50.08000000    58.24000000    49.17000000
   H     49.80000000    57.51000000    48.62000000
   H     49.89000000    57.96000000    50.07000000

Ca 1.00



