%chk=loop3.apoCaM-CA-Ng.Init293.run47.water5.chk
%nprocshared=20
%mem=10GB
%nosave
#b3lyp/svp scf=(tight,noincore,xqc) Test 
#IOP(5/87=12) Density=Current Pop=(MK,readradii) iop(6/33=2) iop(6/42=6)

loop3.apoCaM-CA-Ng.Init293.run47.water5 

   0  1 
   C     61.93000000    81.34000000    68.57000000
   C     62.93000000    80.51000000    67.77000000
   O     63.55000000    79.59000000    68.30000000
   H     60.99300000    80.79100000    68.66100000
   H     62.33300000    81.53700000    69.56400000
   H     61.74900000    82.28500000    68.05700000
   N     63.12000000    80.78000000    66.48000000
   C     64.10000000    80.09000000    65.66000000
   C     63.59000000    78.74000000    65.18000000
   O     62.81000000    78.64000000    64.23000000
   C     64.57000000    81.03000000    64.55000000
   C     66.05000000    80.78000000    64.32000000
   O     66.93000000    81.66000000    64.48000000
   O     66.31000000    79.66000000    63.83000000
   H     62.72000000    81.65000000    66.18000000
   H     64.92000000    79.85000000    66.35000000
   H     64.53000000    82.08000000    64.86000000
   H     64.02000000    80.91000000    63.62000000
   N     64.17000000    77.70000000    65.78000000
   C     63.73000000    76.34000000    65.58000000
   C     63.88000000    75.81000000    64.16000000
   O     65.02000000    75.78000000    63.70000000
   C     62.35000000    75.99000000    66.14000000
   C     62.18000000    76.35000000    67.61000000
   C     60.75000000    76.08000000    68.08000000
   C     60.64000000    76.30000000    69.59000000
   N     59.38000000    75.84000000    70.18000000
   H     64.90000000    77.93000000    66.44000000
   H     64.37000000    75.65000000    66.13000000
   H     62.24000000    74.91000000    66.11000000
   H     61.60000000    76.46000000    65.50000000
   H     62.42000000    77.40000000    67.78000000
   H     62.86000000    75.80000000    68.26000000
   H     60.63000000    75.03000000    67.81000000
   H     60.12000000    76.71000000    67.46000000
   H     60.94000000    77.34000000    69.71000000
   H     61.45000000    75.78000000    70.11000000
   H     58.67000000    76.30000000    69.61000000
   H     59.32000000    74.84000000    70.13000000
   H     59.30000000    76.09000000    71.15000000
   N     62.80000000    75.48000000    63.46000000
   C     62.83000000    74.91000000    62.13000000
   C     61.77000000    75.70000000    61.38000000
   O     60.80000000    76.18000000    61.97000000
   C     62.44000000    73.43000000    62.14000000
   C     61.25000000    73.09000000    63.02000000
   O     60.23000000    72.60000000    62.48000000
   O     61.30000000    73.11000000    64.26000000
   H     61.89000000    75.60000000    63.88000000
   H     63.83000000    75.02000000    61.69000000
   H     63.25000000    72.72000000    62.32000000
   H     62.18000000    73.12000000    61.13000000
   N     62.01000000    75.76000000    60.06000000
   C     60.99000000    76.43000000    59.28000000
   C     59.79000000    75.53000000    59.04000000
   O     59.94000000    74.41000000    58.55000000
   H     62.90000000    75.52000000    59.66000000
   H     61.36000000    76.76000000    58.30000000
   H     60.66000000    77.36000000    59.75000000
   N     58.58000000    76.00000000    59.35000000
   C     57.29000000    75.40000000    59.12000000
   C     56.38000000    76.21000000    58.20000000
   O     55.45000000    75.63000000    57.64000000
   C     56.68000000    75.11000000    60.49000000
   C     57.59000000    74.16000000    61.26000000
   N     57.97000000    74.49000000    62.50000000
   O     57.82000000    73.06000000    60.78000000
   H     58.54000000    76.94000000    59.73000000
   H     57.54000000    74.48000000    58.59000000
   H     55.81000000    74.52000000    60.22000000
   H     56.50000000    76.02000000    61.06000000
   H     57.97000000    75.45000000    62.79000000
   H     58.61000000    73.78000000    62.85000000
   N     56.57000000    77.52000000    58.07000000
   C     56.03000000    78.35000000    57.02000000
   C     54.52000000    78.24000000    56.86000000
   O     53.88000000    78.67000000    57.82000000
   H     57.18000000    77.97000000    58.74000000
   H     56.61000000    78.00000000    56.17000000
   H     56.25000000    79.42000000    57.11000000
   N     53.98000000    77.60000000    55.82000000
   C     52.55000000    77.49000000    55.62000000
   C     51.74000000    76.93000000    56.78000000
   O     50.56000000    77.19000000    57.01000000
   C     52.00000000    78.65000000    54.80000000
   C     52.76000000    79.26000000    53.65000000
   C     53.87000000    80.09000000    53.89000000
   C     52.45000000    78.88000000    52.34000000
   C     54.67000000    80.53000000    52.83000000
   C     53.21000000    79.36000000    51.26000000
   C     54.31000000    80.21000000    51.50000000
   O     55.06000000    80.76000000    50.50000000
   H     54.57000000    77.36000000    55.03000000
   H     52.50000000    76.62000000    54.96000000
   H     51.84000000    79.50000000    55.47000000
   H     51.04000000    78.42000000    54.34000000
   H     54.11000000    80.39000000    54.90000000
   H     51.79000000    78.04000000    52.19000000
   H     55.60000000    81.05000000    52.97000000
   H     52.92000000    79.15000000    50.25000000
   H     54.80000000    80.60000000    49.59000000
   N     52.42000000    76.09000000    57.55000000
   C     51.99000000    75.28000000    58.68000000
   C     51.26000000    74.04000000    58.18000000
   O     51.59000000    72.94000000    58.63000000
   C     51.30000000    76.02000000    59.82000000
   C     52.35000000    76.86000000    60.55000000
   C     50.58000000    75.07000000    60.77000000
   C     51.71000000    78.07000000    61.22000000
   H     53.32000000    75.86000000    57.14000000
   H     52.92000000    74.90000000    59.11000000
   H     50.57000000    76.63000000    59.30000000
   H     53.23000000    77.14000000    59.98000000
   H     52.83000000    76.28000000    61.34000000
   H     50.22000000    75.69000000    61.59000000
   H     49.72000000    74.57000000    60.33000000
   H     51.29000000    74.30000000    61.09000000
   H     50.96000000    78.56000000    60.61000000
   H     51.27000000    77.76000000    62.16000000
   H     52.51000000    78.79000000    61.40000000
   N     50.31000000    74.15000000    57.26000000
   C     49.59000000    73.07000000    56.61000000
   C     49.00000000    71.98000000    57.50000000
   O     49.16000000    70.80000000    57.21000000
   C     48.49000000    73.67000000    55.74000000
   O     47.76000000    74.60000000    56.50000000
   H     50.03000000    75.02000000    56.82000000
   H     50.25000000    72.53000000    55.93000000
   H     47.82000000    72.89000000    55.38000000
   H     48.87000000    74.27000000    54.92000000
   H     46.86000000    74.70000000    56.17000000
   N     48.17000000    72.37000000    58.47000000
   C     47.52000000    71.60000000    59.51000000
   C     48.32000000    70.51000000    60.20000000
   O     47.85000000    69.60000000    60.87000000
   C     46.12000000    71.17000000    59.06000000
   H     47.91000000    73.35000000    58.43000000
   H     47.35000000    72.32000000    60.30000000
   H     46.20000000    70.31000000    58.39000000
   H     45.57000000    70.87000000    59.95000000
   H     45.61000000    72.06000000    58.71000000
   N     49.64000000    70.68000000    60.09000000
   C     50.66000000    69.71000000    60.43000000
   C     51.58000000    70.29000000    61.49000000
   O     51.73000000    71.51000000    61.55000000
   C     51.42000000    69.45000000    59.13000000
   H     50.04000000    71.50000000    59.65000000
   H     50.19000000    68.77000000    60.71000000
   H     52.32000000    68.87000000    59.32000000
   H     50.78000000    68.84000000    58.48000000
   H     51.85000000    70.32000000    58.64000000
   N     52.12000000    69.40000000    62.31000000
   C     52.91000000    69.71000000    63.49000000
   C     52.35000000    70.75000000    64.46000000
   O     53.06000000    71.31000000    65.29000000
   C     54.32000000    69.87000000    62.94000000
   C     55.38000000    69.50000000    63.97000000
   C     56.77000000    69.62000000    63.34000000
   O     57.19000000    68.73000000    62.57000000
   O     57.42000000    70.67000000    63.53000000
   H     51.79000000    68.45000000    62.21000000
   H     53.05000000    68.79000000    64.06000000
   H     54.49000000    70.86000000    62.51000000
   H     54.36000000    69.12000000    62.15000000
   H     55.17000000    68.46000000    64.20000000
   H     55.28000000    70.09000000    64.88000000
   N     51.03000000    70.88000000    64.51000000
   C     50.39000000    71.70000000    65.52000000
   H     49.38800000    71.31800000    65.71600000
   H     50.97600000    71.67000000    66.43800000
   H     50.32300000    72.72800000    65.16500000
   H     50.51000000    70.49000000    63.74000000
  Ca     59.15000000    70.63000000    61.34000000
   O     60.21000000    69.08000000    63.23000000
   H     61.16000000    69.04000000    63.24000000
   H     59.95000000    68.87000000    64.12000000
   O     56.66000000    70.46000000    60.21000000
   H     56.30000000    69.67000000    59.81000000
   H     56.09000000    71.16000000    59.91000000
   O     59.63000000    71.53000000    58.97000000
   H     59.78000000    72.45000000    58.75000000
   H     60.20000000    71.05000000    58.37000000
   O     61.72000000    69.84000000    60.48000000
   H     61.60000000    70.00000000    59.55000000
   H     62.47000000    69.24000000    60.53000000
   O     59.34000000    68.41000000    59.83000000
   H     58.66000000    67.79000000    59.58000000
   H     60.11000000    68.14000000    59.33000000

Ca 1.00



