%chk=loop2.apoCaM-CA-Ng.Init293.run80.water6.chk
%nprocshared=20
%mem=10GB
%nosave
#b3lyp/svp scf=(tight,noincore,xqc) Test 
#IOP(5/87=12) Density=Current Pop=(MK,readradii) iop(6/33=2) iop(6/42=6)

loop2.apoCaM-CA-Ng.Init293.run80.water6 

   -2  1 
   C     74.35000000   104.14000000    29.62000000
   C     74.69000000   105.60000000    29.89000000
   O     74.03000000   106.29000000    30.66000000
   H     73.42200000   104.08300000    29.05200000
   H     75.15500000   103.67900000    29.04700000
   H     74.22900000   103.61300000    30.56700000
   N     75.88000000   106.04000000    29.49000000
   C     76.36000000   107.40000000    29.67000000
   C     75.50000000   108.36000000    28.87000000
   O     75.10000000   109.39000000    29.42000000
   C     77.82000000   107.50000000    29.24000000
   C     78.43000000   108.89000000    29.34000000
   O     77.98000000   109.64000000    30.24000000
   O     79.18000000   109.17000000    28.39000000
   H     76.51000000   105.37000000    29.07000000
   H     76.34000000   107.61000000    30.74000000
   H     77.79000000   107.15000000    28.20000000
   H     78.50000000   106.72000000    29.58000000
   N     75.15000000   108.05000000    27.61000000
   C     74.33000000   108.99000000    26.87000000
   C     73.11000000   109.60000000    27.54000000
   O     72.82000000   110.77000000    27.30000000
   C     75.26000000   109.93000000    26.12000000
   H     75.44000000   107.18000000    27.20000000
   H     73.93000000   108.35000000    26.08000000
   H     75.96000000   109.38000000    25.48000000
   H     74.78000000   110.57000000    25.38000000
   H     75.72000000   110.56000000    26.87000000
   N     72.36000000   108.79000000    28.30000000
   C     71.12000000   109.07000000    28.99000000
   C     71.08000000   110.26000000    29.94000000
   O     70.05000000   110.55000000    30.54000000
   C     69.94000000   108.76000000    28.08000000
   C     69.96000000   107.33000000    27.54000000
   O     70.16000000   106.39000000    28.33000000
   O     69.66000000   107.13000000    26.34000000
   H     72.75000000   107.88000000    28.49000000
   H     71.05000000   108.33000000    29.78000000
   H     69.91000000   109.46000000    27.24000000
   H     69.01000000   108.88000000    28.63000000
   N     72.26000000   110.78000000    30.31000000
   C     72.42000000   112.05000000    31.00000000
   C     72.01000000   112.01000000    32.46000000
   O     72.18000000   111.05000000    33.21000000
   H     73.05000000   110.49000000    29.77000000
   H     71.84000000   112.80000000    30.46000000
   H     73.47000000   112.31000000    30.82000000
   N     71.34000000   113.11000000    32.84000000
   C     70.79000000   113.33000000    34.16000000
   C     71.68000000   113.10000000    35.37000000
   O     71.21000000   112.84000000    36.47000000
   C     69.46000000   112.63000000    34.41000000
   C     68.34000000   113.05000000    33.46000000
   N     68.24000000   112.43000000    32.29000000
   O     67.52000000   113.90000000    33.81000000
   H     71.31000000   113.86000000    32.17000000
   H     70.61000000   114.41000000    34.19000000
   H     69.09000000   112.87000000    35.41000000
   H     69.53000000   111.55000000    34.49000000
   H     68.86000000   111.66000000    32.10000000
   H     67.36000000   112.51000000    31.80000000
   N     72.98000000   112.95000000    35.08000000
   C     74.09000000   112.63000000    35.96000000
   C     74.50000000   111.16000000    35.97000000
   O     75.51000000   110.79000000    36.56000000
   H     73.24000000   113.09000000    34.11000000
   H     73.81000000   112.91000000    36.97000000
   H     74.97000000   113.15000000    35.58000000
   N     73.81000000   110.33000000    35.19000000
   C     74.09000000   108.93000000    34.94000000
   C     72.92000000   108.03000000    35.30000000
   O     71.77000000   108.43000000    35.09000000
   C     74.36000000   108.70000000    33.46000000
   C     75.47000000   109.55000000    32.85000000
   O     74.79000000   107.39000000    33.17000000
   H     73.07000000   110.75000000    34.64000000
   H     75.04000000   108.69000000    35.41000000
   H     73.45000000   108.89000000    32.88000000
   H     74.49000000   107.11000000    32.30000000
   H     76.38000000   109.47000000    33.45000000
   H     75.71000000   109.20000000    31.85000000
   H     75.15000000   110.59000000    32.93000000
   N     73.23000000   106.82000000    35.76000000
   C     72.36000000   105.73000000    36.13000000
   C     71.28000000   105.63000000    35.07000000
   O     71.62000000   105.47000000    33.89000000
   C     73.08000000   104.41000000    36.42000000
   C     74.04000000   104.66000000    37.58000000
   C     72.16000000   103.21000000    36.65000000
   C     74.96000000   103.45000000    37.67000000
   H     74.21000000   106.57000000    35.63000000
   H     71.93000000   106.07000000    37.08000000
   H     73.62000000   104.16000000    35.51000000
   H     73.43000000   104.64000000    38.48000000
   H     74.54000000   105.63000000    37.51000000
   H     71.49000000   103.43000000    37.49000000
   H     71.55000000   103.00000000    35.77000000
   H     72.77000000   102.32000000    36.77000000
   H     74.45000000   102.60000000    38.13000000
   H     75.23000000   103.05000000    36.69000000
   H     75.89000000   103.67000000    38.20000000
   N     70.00000000   105.64000000    35.45000000
   C     68.85000000   105.60000000    34.57000000
   C     67.77000000   106.53000000    35.10000000
   O     66.61000000   106.14000000    35.20000000
   C     68.44000000   104.13000000    34.55000000
   C     67.60000000   103.72000000    33.35000000
   O     67.50000000   104.41000000    32.31000000
   O     66.86000000   102.72000000    33.41000000
   H     69.80000000   105.62000000    36.44000000
   H     69.04000000   105.94000000    33.56000000
   H     67.82000000   103.92000000    35.42000000
   H     69.30000000   103.48000000    34.70000000
   N     68.16000000   107.79000000    35.32000000
   C     67.22000000   108.77000000    35.83000000
   C     67.91000000   109.87000000    36.62000000
   O     67.43000000   111.00000000    36.62000000
   C     66.39000000   109.34000000    34.67000000
   C     65.06000000   109.88000000    35.14000000
   C     64.84000000   111.26000000    35.21000000
   C     64.06000000   109.01000000    35.60000000
   C     63.62000000   111.81000000    35.63000000
   C     62.78000000   109.51000000    35.88000000
   C     62.59000000   110.90000000    35.89000000
   H     69.12000000   108.00000000    35.12000000
   H     66.56000000   108.40000000    36.61000000
   H     66.05000000   108.56000000    33.99000000
   H     66.95000000   110.10000000    34.13000000
   H     65.68000000   111.88000000    34.93000000
   H     64.14000000   107.94000000    35.54000000
   H     63.56000000   112.89000000    35.56000000
   H     62.00000000   108.83000000    36.17000000
   H     61.63000000   111.27000000    36.22000000
   N     68.87000000   109.59000000    37.50000000
   C     69.60000000   108.37000000    37.78000000
   C     68.71000000   107.28000000    38.36000000
   O     68.98000000   106.11000000    38.14000000
   C     70.77000000   108.74000000    38.69000000
   C     70.99000000   110.22000000    38.36000000
   C     69.54000000   110.67000000    38.19000000
   H     70.09000000   108.01000000    36.86000000
   H     70.44000000   108.55000000    39.71000000
   H     71.63000000   108.09000000    38.53000000
   H     71.48000000   110.75000000    39.17000000
   H     71.58000000   110.23000000    37.44000000
   H     69.06000000   111.03000000    39.10000000
   H     69.49000000   111.58000000    37.59000000
   N     67.75000000   107.75000000    39.16000000
   C     66.84000000   106.96000000    39.97000000
   C     67.51000000   105.87000000    40.80000000
   O     67.28000000   104.68000000    40.65000000
   C     65.66000000   106.46000000    39.15000000
   C     64.66000000   107.53000000    38.72000000
   C     63.37000000   106.88000000    38.22000000
   O     62.35000000   107.58000000    38.39000000
   O     63.27000000   105.76000000    37.66000000
   H     67.76000000   108.76000000    39.25000000
   H     66.41000000   107.63000000    40.72000000
   H     65.07000000   105.74000000    39.72000000
   H     65.92000000   105.98000000    38.20000000
   H     65.08000000   108.25000000    38.02000000
   H     64.48000000   108.08000000    39.64000000
   N     68.41000000   106.30000000    41.69000000
   C     69.38000000   105.39000000    42.27000000
   H     70.26400000   105.94900000    42.57600000
   H     68.94300000   104.89800000    43.13900000
   H     69.66200000   104.64000000    41.53100000
   H     68.72000000   107.26000000    41.65000000
  Ca     69.23000000   105.06600000    30.27000000
   O     68.13000000   102.68600000    29.92000000
   H     68.39000000   102.24600000    29.11000000
   H     67.74000000   101.99600000    30.45000000
   O     68.31000000   107.29600000    31.59000000
   H     68.85000000   108.00600000    31.93000000
   H     67.45000000   107.69600000    31.47000000
   O     71.34000000   106.49600000    31.10000000
   H     72.29000000   106.48600000    30.98000000
   H     71.22000000   106.61600000    32.05000000
   O     70.81000000   103.68600000    32.09000000
   H     71.34000000   104.20600000    32.70000000
   H     71.08000000   102.78600000    32.25000000
   O     70.70000000   103.21600000    28.84000000
   H     70.68000000   102.25600000    28.82000000
   H     70.99000000   103.47600000    27.97000000
   O     67.10000000   105.34600000    28.68000000
   H     66.32000000   105.90600000    28.63000000
   H     67.10000000   104.85600000    27.86000000

Ca 1.00



