%chk=loop3.holoCaM.run55.water2.chk
%nprocshared=20
%mem=10GB
%nosave
#b3lyp/svp scf=(tight,noincore,xqc) Test 
#IOP(5/87=12) Density=Current Pop=(MK,readradii) iop(6/33=2) iop(6/42=6)

loop3.holoCaM.run55.water2 

   0  1 
   C     67.62000000    49.94000000     4.92300000
   C     68.29000000    50.59000000     6.12300000
   O     68.86000000    49.84000000     6.91300000
   H     66.71500000    50.49200000     4.67000000
   H     68.30300000    49.95300000     4.07400000
   H     67.36000000    48.90900000     5.16500000
   N     68.32000000    51.91000000     6.28300000
   C     68.58000000    52.66000000     7.50300000
   C     67.36000000    52.51000000     8.40300000
   O     66.35000000    53.19000000     8.24300000
   C     69.04000000    54.08000000     7.20300000
   C     69.30000000    54.93000000     8.43300000
   O     69.45000000    56.15000000     8.21300000
   O     69.20000000    54.41000000     9.56300000
   H     67.94000000    52.48000000     5.54300000
   H     69.40000000    52.20000000     8.06300000
   H     68.22000000    54.62000000     6.71300000
   H     69.90000000    54.09000000     6.53300000
   N     67.40000000    51.55000000     9.32300000
   C     66.19000000    51.03000000     9.93300000
   C     65.59000000    51.82000000    11.08300000
   O     64.60000000    51.47000000    11.72300000
   C     66.41000000    49.62000000    10.48300000
   C     66.61000000    48.48000000     9.49300000
   C     65.26000000    48.02000000     8.93300000
   C     65.45000000    47.17000000     7.67300000
   N     65.76000000    45.76000000     8.00300000
   H     68.26000000    51.08000000     9.56300000
   H     65.36000000    51.01000000     9.22300000
   H     65.80000000    49.26000000    11.30300000
   H     67.31000000    49.63000000    11.10300000
   H     67.24000000    47.75000000     9.98300000
   H     67.20000000    48.82000000     8.63300000
   H     64.73000000    48.89000000     8.55300000
   H     64.62000000    47.48000000     9.63300000
   H     66.18000000    47.69000000     7.05300000
   H     64.50000000    47.17000000     7.15300000
   H     65.05000000    45.34000000     8.58300000
   H     65.84000000    45.17000000     7.19300000
   H     66.62000000    45.67000000     8.52300000
   N     66.28000000    52.91000000    11.42300000
   C     65.75000000    53.92000000    12.31300000
   C     65.73000000    55.30000000    11.68300000
   O     65.24000000    56.28000000    12.23300000
   C     66.48000000    54.04000000    13.65300000
   C     67.99000000    54.21000000    13.50300000
   O     68.65000000    54.22000000    14.57300000
   O     68.58000000    54.26000000    12.40300000
   H     67.10000000    53.15000000    10.88300000
   H     64.69000000    53.78000000    12.54300000
   H     66.30000000    53.14000000    14.23300000
   H     66.05000000    54.88000000    14.19300000
   N     66.16000000    55.42000000    10.42300000
   C     66.35000000    56.68000000     9.73300000
   C     67.26000000    57.67000000    10.44300000
   O     66.80000000    58.76000000    10.78300000
   H     66.48000000    54.62000000     9.89300000
   H     65.38000000    57.08000000     9.44300000
   H     66.81000000    56.38000000     8.79300000
   N     68.49000000    57.33000000    10.84300000
   C     69.48000000    58.22000000    11.42300000
   C     70.59000000    58.67000000    10.49300000
   O     71.50000000    59.34000000    10.97300000
   C     70.11000000    57.62000000    12.68300000
   C     71.26000000    56.64000000    12.50300000
   N     72.16000000    56.46000000    13.46300000
   O     71.27000000    55.95000000    11.48300000
   H     68.84000000    56.42000000    10.59300000
   H     69.03000000    59.18000000    11.68300000
   H     69.36000000    57.06000000    13.24300000
   H     70.56000000    58.42000000    13.26300000
   H     71.98000000    56.86000000    14.37300000
   H     72.99000000    55.90000000    13.30300000
   N     70.41000000    58.58000000     9.17300000
   C     71.35000000    59.02000000     8.16300000
   C     72.42000000    57.98000000     7.85300000
   O     73.23000000    58.23000000     6.96300000
   H     69.57000000    58.07000000     8.94300000
   H     71.72000000    60.00000000     8.47300000
   H     70.87000000    59.10000000     7.19300000
   N     72.48000000    56.83000000     8.53300000
   C     73.58000000    55.90000000     8.55300000
   C     73.15000000    54.44000000     8.51300000
   O     72.25000000    54.05000000     9.25300000
   C     74.43000000    56.13000000     9.80300000
   C     75.07000000    57.49000000     9.93300000
   C     74.54000000    58.33000000    10.91300000
   C     76.03000000    57.93000000     9.00300000
   C     75.08000000    59.61000000    11.09300000
   C     76.55000000    59.22000000     9.17300000
   C     76.16000000    60.01000000    10.27300000
   O     76.68000000    61.27000000    10.29300000
   H     71.67000000    56.60000000     9.09300000
   H     74.17000000    55.99000000     7.64300000
   H     75.25000000    55.42000000     9.71300000
   H     74.00000000    55.82000000    10.75300000
   H     73.68000000    58.04000000    11.49300000
   H     76.34000000    57.25000000     8.23300000
   H     74.63000000    60.29000000    11.79300000
   H     77.27000000    59.69000000     8.51300000
   H     77.17000000    61.45000000     9.49300000
   N     73.93000000    53.64000000     7.78300000
   C     73.77000000    52.20000000     7.79300000
   C     74.97000000    51.62000000     8.53300000
   O     76.12000000    51.86000000     8.15300000
   C     73.49000000    51.65000000     6.39300000
   C     72.17000000    52.17000000     5.82300000
   C     73.51000000    50.13000000     6.32300000
   C     71.94000000    51.84000000     4.35300000
   H     74.74000000    53.93000000     7.26300000
   H     72.89000000    52.01000000     8.41300000
   H     74.33000000    51.93000000     5.75300000
   H     72.19000000    53.26000000     5.84300000
   H     71.34000000    51.76000000     6.39300000
   H     73.70000000    49.77000000     5.31300000
   H     74.25000000    49.69000000     6.99300000
   H     72.49000000    49.78000000     6.53300000
   H     72.79000000    52.12000000     3.73300000
   H     71.67000000    50.80000000     4.16300000
   H     71.03000000    52.31000000     3.96300000
   N     74.77000000    50.87000000     9.61300000
   C     75.66000000    50.16000000    10.51300000
   C     75.70000000    48.67000000    10.18300000
   O     74.89000000    48.18000000     9.41300000
   C     75.29000000    50.45000000    11.96300000
   O     74.08000000    49.74000000    12.11300000
   H     73.80000000    50.78000000     9.88300000
   H     76.64000000    50.52000000    10.20300000
   H     75.13000000    51.53000000    12.04300000
   H     76.00000000    50.02000000    12.67300000
   H     73.47000000    50.01000000    11.43300000
   N     76.52000000    47.87000000    10.87300000
   C     76.65000000    46.46000000    10.57300000
   C     75.32000000    45.72000000    10.62300000
   O     75.05000000    44.85000000     9.79300000
   C     77.72000000    45.92000000    11.51300000
   H     77.18000000    48.29000000    11.50300000
   H     76.97000000    46.38000000     9.53300000
   H     77.86000000    44.85000000    11.37300000
   H     78.67000000    46.37000000    11.25300000
   H     77.56000000    46.25000000    12.53300000
   N     74.53000000    45.94000000    11.67300000
   C     73.33000000    45.20000000    11.99300000
   C     72.25000000    45.48000000    10.95300000
   O     71.34000000    44.66000000    10.86300000
   C     72.78000000    45.65000000    13.34300000
   H     74.90000000    46.59000000    12.36300000
   H     73.63000000    44.16000000    11.96300000
   H     72.64000000    46.74000000    13.36300000
   H     71.85000000    45.09000000    13.48300000
   H     73.34000000    45.26000000    14.19300000
   N     72.32000000    46.51000000    10.10300000
   C     71.46000000    46.90000000     9.00300000
   C     71.99000000    46.43000000     7.66300000
   O     71.28000000    45.87000000     6.83300000
   C     71.35000000    48.42000000     9.01300000
   C     70.86000000    48.92000000    10.37300000
   C     70.94000000    50.44000000    10.35300000
   O     69.94000000    51.14000000    10.08300000
   O     72.01000000    50.97000000    10.71300000
   H     73.16000000    47.04000000    10.27300000
   H     70.52000000    46.35000000     9.08300000
   H     70.76000000    48.82000000     8.20300000
   H     72.35000000    48.82000000     8.82300000
   H     71.35000000    48.52000000    11.26300000
   H     69.82000000    48.60000000    10.45300000
   N     73.30000000    46.65000000     7.49300000
   C     74.07000000    46.19000000     6.36300000
   H     75.05600000    45.87200000     6.70100000
   H     73.56000000    45.34900000     5.89300000
   H     74.17700000    47.00000000     5.64200000
   H     73.83000000    47.11000000     8.22300000
  Ca     70.76000000    53.31000000    11.28000000
   O     70.46000000    51.77000000    13.57000000
   H     70.02000000    51.98000000    14.39000000
   H     70.91000000    50.94000000    13.75000000
   O     73.18000000    53.37000000    12.80000000
   H     73.25000000    53.01000000    13.69000000
   H     73.99000000    53.87000000    12.69000000

Ca 1.00



