%chk=loop2.holoCaM-CaMKII.run90.water1.chk
%nprocshared=20
%mem=10GB
%nosave
#b3lyp/svp scf=(tight,noincore,xqc) Test 
#IOP(5/87=12) Density=Current Pop=(MK,readradii) iop(6/33=2) iop(6/42=6)

loop2.holoCaM-CaMKII.run90.water1 

   -2  1 
   C     64.73000000    35.83000000   -21.25500000
   C     65.55000000    35.06000000   -22.27500000
   O     66.69000000    34.72000000   -21.98500000
   H     63.74900000    35.36700000   -21.15400000
   H     65.23900000    35.81400000   -20.29100000
   H     64.61200000    36.86200000   -21.58700000
   N     65.08000000    35.02000000   -23.52500000
   C     65.69000000    34.26000000   -24.60500000
   C     67.06000000    34.68000000   -25.12500000
   O     67.24000000    35.77000000   -25.64500000
   C     64.67000000    34.20000000   -25.73500000
   C     64.92000000    33.02000000   -26.67500000
   O     64.11000000    32.80000000   -27.59500000
   O     65.96000000    32.33000000   -26.51500000
   H     64.08000000    35.14000000   -23.62500000
   H     65.72000000    33.25000000   -24.19500000
   H     64.75000000    35.11000000   -26.33500000
   H     63.67000000    34.03000000   -25.35500000
   N     68.09000000    33.86000000   -24.91500000
   C     69.48000000    34.08000000   -25.27500000
   C     69.81000000    33.71000000   -26.71500000
   O     70.84000000    34.14000000   -27.22500000
   C     70.37000000    33.44000000   -24.21500000
   H     67.88000000    33.00000000   -24.43500000
   H     69.60000000    35.16000000   -25.27500000
   H     70.26000000    32.36000000   -24.19500000
   H     71.37000000    33.72000000   -24.54500000
   H     70.05000000    33.95000000   -23.31500000
   N     68.93000000    33.01000000   -27.42500000
   C     69.15000000    32.77000000   -28.84500000
   C     68.00000000    33.29000000   -29.69500000
   O     67.98000000    33.09000000   -30.91500000
   C     69.57000000    31.32000000   -29.08500000
   C     68.79000000    30.24000000   -28.35500000
   O     69.46000000    29.28000000   -27.89500000
   O     67.65000000    30.55000000   -27.96500000
   H     68.08000000    32.58000000   -27.07500000
   H     69.93000000    33.48000000   -29.11500000
   H     70.60000000    31.19000000   -28.75500000
   H     69.56000000    31.11000000   -30.15500000
   N     67.07000000    34.05000000   -29.13500000
   C     65.91000000    34.59000000   -29.81500000
   C     65.18000000    33.55000000   -30.65500000
   O     64.54000000    34.02000000   -31.58500000
   H     67.21000000    34.27000000   -28.15500000
   H     66.26000000    35.31000000   -30.54500000
   H     65.27000000    35.16000000   -29.13500000
   N     65.00000000    32.30000000   -30.22500000
   C     64.27000000    31.26000000   -30.91500000
   C     62.79000000    31.08000000   -30.58500000
   O     62.10000000    30.23000000   -31.13500000
   C     65.08000000    29.97000000   -30.86500000
   C     64.70000000    29.21000000   -29.60500000
   N     63.96000000    28.11000000   -29.69500000
   O     64.84000000    29.64000000   -28.45500000
   H     65.33000000    32.05000000   -29.30500000
   H     64.22000000    31.52000000   -31.97500000
   H     66.16000000    30.06000000   -30.96500000
   H     64.68000000    29.34000000   -31.66500000
   H     63.76000000    27.84000000   -30.65500000
   H     63.54000000    27.64000000   -28.90500000
   N     62.33000000    31.65000000   -29.46500000
   C     60.97000000    31.54000000   -28.97500000
   C     60.66000000    30.44000000   -27.96500000
   O     59.49000000    30.14000000   -27.73500000
   H     62.98000000    32.28000000   -29.02500000
   H     60.41000000    31.31000000   -29.88500000
   H     60.66000000    32.49000000   -28.54500000
   N     61.72000000    29.84000000   -27.41500000
   C     61.59000000    28.88000000   -26.33500000
   C     62.60000000    29.09000000   -25.21500000
   O     63.58000000    29.79000000   -25.49500000
   C     61.76000000    27.47000000   -26.87500000
   C     60.89000000    26.53000000   -26.05500000
   O     61.38000000    27.29000000   -28.22500000
   H     62.63000000    30.16000000   -27.69500000
   H     60.58000000    28.98000000   -25.93500000
   H     62.78000000    27.09000000   -26.78500000
   H     61.44000000    26.35000000   -28.43500000
   H     59.92000000    26.98000000   -26.29500000
   H     60.99000000    25.55000000   -26.51500000
   H     61.25000000    26.43000000   -25.03500000
   N     62.41000000    28.61000000   -23.98500000
   C     63.25000000    28.96000000   -22.86500000
   C     64.03000000    27.75000000   -22.37500000
   O     63.40000000    26.77000000   -21.98500000
   C     62.36000000    29.58000000   -21.78500000
   C     61.53000000    30.77000000   -22.25500000
   C     63.22000000    30.00000000   -20.59500000
   C     60.35000000    31.07000000   -21.32500000
   H     61.58000000    28.07000000   -23.79500000
   H     64.00000000    29.74000000   -23.04500000
   H     61.60000000    28.86000000   -21.49500000
   H     61.06000000    30.47000000   -23.18500000
   H     62.10000000    31.70000000   -22.30500000
   H     63.93000000    29.20000000   -20.37500000
   H     63.81000000    30.89000000   -20.82500000
   H     62.55000000    30.20000000   -19.75500000
   H     60.78000000    31.47000000   -20.40500000
   H     59.75000000    31.93000000   -21.60500000
   H     59.79000000    30.16000000   -21.12500000
   N     65.35000000    27.86000000   -22.53500000
   C     66.37000000    26.98000000   -22.00500000
   C     66.67000000    27.22000000   -20.53500000
   O     66.32000000    28.25000000   -19.94500000
   C     67.67000000    27.16000000   -22.78500000
   C     67.46000000    26.96000000   -24.27500000
   O     67.01000000    25.89000000   -24.74500000
   O     67.65000000    28.01000000   -24.92500000
   H     65.64000000    28.79000000   -22.79500000
   H     66.12000000    25.95000000   -22.26500000
   H     68.42000000    26.41000000   -22.50500000
   H     68.12000000    28.13000000   -22.55500000
   N     67.34000000    26.27000000   -19.88500000
   C     67.62000000    26.31000000   -18.46500000
   C     68.49000000    27.50000000   -18.06500000
   O     67.97000000    28.20000000   -17.20500000
   C     68.20000000    24.99000000   -17.97500000
   C     68.52000000    24.93000000   -16.50500000
   C     69.84000000    24.76000000   -16.06500000
   C     67.50000000    25.00000000   -15.54500000
   C     70.17000000    24.76000000   -14.70500000
   C     67.81000000    24.97000000   -14.17500000
   C     69.14000000    24.80000000   -13.75500000
   H     67.70000000    25.52000000   -20.45500000
   H     66.72000000    26.50000000   -17.87500000
   H     69.15000000    24.92000000   -18.51500000
   H     67.42000000    24.25000000   -18.17500000
   H     70.60000000    24.56000000   -16.81500000
   H     66.49000000    25.02000000   -15.90500000
   H     71.16000000    24.50000000   -14.37500000
   H     66.95000000    25.01000000   -13.52500000
   H     69.44000000    24.76000000   -12.72500000
   N     69.55000000    27.90000000   -18.76500000
   C     70.20000000    29.14000000   -18.37500000
   C     69.30000000    30.36000000   -18.50500000
   O     69.51000000    31.32000000   -17.76500000
   C     71.50000000    29.09000000   -19.16500000
   C     71.22000000    28.22000000   -20.38500000
   C     70.29000000    27.17000000   -19.77500000
   H     70.51000000    28.97000000   -17.34500000
   H     71.75000000    30.07000000   -19.58500000
   H     72.31000000    28.83000000   -18.49500000
   H     70.61000000    28.71000000   -21.14500000
   H     72.10000000    27.89000000   -20.93500000
   H     69.63000000    26.81000000   -20.55500000
   H     70.82000000    26.33000000   -19.32500000
   N     68.22000000    30.30000000   -19.28500000
   C     67.37000000    31.43000000   -19.58500000
   C     66.34000000    31.51000000   -18.47500000
   O     65.91000000    32.62000000   -18.15500000
   C     66.80000000    31.23000000   -20.99500000
   C     67.85000000    31.39000000   -22.09500000
   C     67.29000000    30.92000000   -23.42500000
   O     67.99000000    30.99000000   -24.45500000
   O     66.19000000    30.32000000   -23.51500000
   H     68.11000000    29.40000000   -19.73500000
   H     67.97000000    32.33000000   -19.54500000
   H     66.03000000    31.99000000   -21.14500000
   H     66.23000000    30.31000000   -21.01500000
   H     68.72000000    30.77000000   -21.86500000
   H     68.14000000    32.44000000   -22.04500000
   N     65.94000000    30.39000000   -17.85500000
   C     65.05000000    30.37000000   -16.71500000
   H     64.08700000    29.95600000   -17.01400000
   H     65.48200000    29.75300000   -15.92700000
   H     64.90900000    31.38600000   -16.34600000
   H     66.32000000    29.49000000   -18.12500000
  Ca     66.20000000    29.83000000   -26.06500000
   O     65.28000000    27.13000000   -26.36500000
   H     65.16000000    26.48000000   -27.06500000
   H     65.86000000    26.69000000   -25.73500000

Ca 1.00



