%chk=loop2.apoCaM-CA-Ng.Init295.run29.water5.chk
%nprocshared=20
%mem=10GB
%nosave
#b3lyp/svp scf=(tight,noincore,xqc) Test 
#IOP(5/87=12) Density=Current Pop=(MK,readradii) iop(6/33=2) iop(6/42=6)

loop2.apoCaM-CA-Ng.Init295.run29.water5 

   -2  1 
   C     92.73000000    75.20000000    47.02000000
   C     94.21000000    74.92000000    46.85000000
   O     94.96000000    75.73000000    46.29000000
   H     92.16900000    74.27400000    46.89400000
   H     92.54800000    75.60100000    48.01700000
   H     92.40800000    75.92400000    46.27200000
   N     94.60000000    73.78000000    47.41000000
   C     95.97000000    73.60000000    47.86000000
   C     96.28000000    74.28000000    49.18000000
   O     95.77000000    73.88000000    50.23000000
   C     96.32000000    72.12000000    47.94000000
   C     97.77000000    71.76000000    48.24000000
   O     98.09000000    70.56000000    48.08000000
   O     98.59000000    72.60000000    48.67000000
   H     93.88000000    73.19000000    47.80000000
   H     96.61000000    73.96000000    47.05000000
   H     96.08000000    71.57000000    47.03000000
   H     95.82000000    71.67000000    48.79000000
   N     97.09000000    75.33000000    49.07000000
   C     97.50000000    76.19000000    50.16000000
   C     96.46000000    77.24000000    50.54000000
   O     95.73000000    77.80000000    49.72000000
   C     98.82000000    76.80000000    49.70000000
   H     97.51000000    75.55000000    48.17000000
   H     97.74000000    75.48000000    50.95000000
   H     99.49000000    75.96000000    49.51000000
   H     98.75000000    77.25000000    48.72000000
   H     99.17000000    77.42000000    50.52000000
   N     96.32000000    77.65000000    51.80000000
   C     97.15000000    77.28000000    52.93000000
   C     96.66000000    76.16000000    53.83000000
   O     95.47000000    75.87000000    53.95000000
   C     97.59000000    78.46000000    53.80000000
   C     98.23000000    79.63000000    53.05000000
   O     98.76000000    79.49000000    51.93000000
   O     98.15000000    80.79000000    53.51000000
   H     95.41000000    78.03000000    52.02000000
   H     98.10000000    76.93000000    52.53000000
   H     98.31000000    78.07000000    54.52000000
   H     96.75000000    78.89000000    54.34000000
   N     97.58000000    75.52000000    54.55000000
   C     97.34000000    74.33000000    55.33000000
   C     97.21000000    73.10000000    54.44000000
   O     97.90000000    73.05000000    53.43000000
   H     98.52000000    75.89000000    54.65000000
   H     96.42000000    74.42000000    55.91000000
   H     98.23000000    74.20000000    55.96000000
   N     96.50000000    72.03000000    54.82000000
   C     95.83000000    71.76000000    56.08000000
   C     94.55000000    72.47000000    56.49000000
   O     94.10000000    72.31000000    57.62000000
   C     95.74000000    70.23000000    56.09000000
   C     97.04000000    69.47000000    55.88000000
   N     97.64000000    68.84000000    56.89000000
   O     97.50000000    69.40000000    54.75000000
   H     96.69000000    71.23000000    54.25000000
   H     96.57000000    71.99000000    56.84000000
   H     95.03000000    69.84000000    55.37000000
   H     95.32000000    69.97000000    57.06000000
   H     97.19000000    68.78000000    57.80000000
   H     98.46000000    68.26000000    56.81000000
   N     93.86000000    73.14000000    55.56000000
   C     92.71000000    73.91000000    55.98000000
   C     93.04000000    75.14000000    56.81000000
   O     92.33000000    75.34000000    57.80000000
   H     94.20000000    73.19000000    54.61000000
   H     92.11000000    73.19000000    56.55000000
   H     92.21000000    74.29000000    55.09000000
   N     94.11000000    75.86000000    56.49000000
   C     94.37000000    77.17000000    57.08000000
   C     93.75000000    78.26000000    56.21000000
   O     94.30000000    78.77000000    55.24000000
   C     95.85000000    77.35000000    57.39000000
   C     96.15000000    78.57000000    58.25000000
   O     96.47000000    76.25000000    58.01000000
   H     94.67000000    75.64000000    55.69000000
   H     93.73000000    77.18000000    57.96000000
   H     96.27000000    77.48000000    56.39000000
   H     97.39000000    76.36000000    57.76000000
   H     97.22000000    78.77000000    58.16000000
   H     95.62000000    79.43000000    57.87000000
   H     95.76000000    78.50000000    59.27000000
   N     92.48000000    78.58000000    56.49000000
   C     91.61000000    79.48000000    55.76000000
   C     90.99000000    80.57000000    56.63000000
   O     90.80000000    80.41000000    57.83000000
   C     90.44000000    78.73000000    55.12000000
   C     90.93000000    78.03000000    53.85000000
   C     89.64000000    77.86000000    56.08000000
   C     91.48000000    76.61000000    53.98000000
   H     92.08000000    78.35000000    57.39000000
   H     92.21000000    79.85000000    54.94000000
   H     89.73000000    79.49000000    54.81000000
   H     91.67000000    78.64000000    53.33000000
   H     90.04000000    77.89000000    53.25000000
   H     90.21000000    76.99000000    56.40000000
   H     89.50000000    78.42000000    57.01000000
   H     88.65000000    77.59000000    55.70000000
   H     92.47000000    76.67000000    54.45000000
   H     90.98000000    76.04000000    54.77000000
   H     91.44000000    76.06000000    53.04000000
   N     90.64000000    81.66000000    55.96000000
   C     89.92000000    82.75000000    56.60000000
   C     88.80000000    83.16000000    55.67000000
   O     89.07000000    83.59000000    54.55000000
   C     90.80000000    83.89000000    57.09000000
   C     92.04000000    84.23000000    56.29000000
   O     93.11000000    83.76000000    56.73000000
   O     91.98000000    84.88000000    55.22000000
   H     90.99000000    81.78000000    55.02000000
   H     89.42000000    82.40000000    57.50000000
   H     91.26000000    83.55000000    58.02000000
   H     90.29000000    84.83000000    57.32000000
   N     87.56000000    83.11000000    56.16000000
   C     86.46000000    83.76000000    55.47000000
   C     86.24000000    83.24000000    54.06000000
   O     86.13000000    82.02000000    53.93000000
   C     85.26000000    83.44000000    56.36000000
   C     83.96000000    84.07000000    55.91000000
   C     83.04000000    83.30000000    55.21000000
   C     83.79000000    85.46000000    55.93000000
   C     82.00000000    83.93000000    54.52000000
   C     82.71000000    86.07000000    55.27000000
   C     81.74000000    85.31000000    54.62000000
   H     87.42000000    82.69000000    57.07000000
   H     86.65000000    84.82000000    55.39000000
   H     85.33000000    83.80000000    57.39000000
   H     85.21000000    82.35000000    56.33000000
   H     83.14000000    82.22000000    55.16000000
   H     84.62000000    85.97000000    56.38000000
   H     81.21000000    83.32000000    54.11000000
   H     82.67000000    87.12000000    55.05000000
   H     80.87000000    85.79000000    54.18000000
   N     86.29000000    84.04000000    52.99000000
   C     86.18000000    83.56000000    51.63000000
   C     86.95000000    82.32000000    51.20000000
   O     86.41000000    81.57000000    50.39000000
   C     86.68000000    84.76000000    50.84000000
   C     86.07000000    85.92000000    51.62000000
   C     86.21000000    85.48000000    53.08000000
   H     85.13000000    83.34000000    51.42000000
   H     87.77000000    84.73000000    50.84000000
   H     86.34000000    84.86000000    49.81000000
   H     86.72000000    86.77000000    51.41000000
   H     85.02000000    86.08000000    51.37000000
   H     87.14000000    85.89000000    53.46000000
   H     85.36000000    85.76000000    53.71000000
   N     88.11000000    82.10000000    51.82000000
   C     88.91000000    80.91000000    51.57000000
   C     88.22000000    79.59000000    51.87000000
   O     88.35000000    78.65000000    51.09000000
   C     90.23000000    81.10000000    52.31000000
   C     91.05000000    82.33000000    51.97000000
   C     92.31000000    82.59000000    52.78000000
   O     93.16000000    83.37000000    52.28000000
   O     92.58000000    81.90000000    53.79000000
   H     88.43000000    82.74000000    52.53000000
   H     89.16000000    80.82000000    50.51000000
   H     90.85000000    80.20000000    52.29000000
   H     90.00000000    81.14000000    53.38000000
   H     90.40000000    83.20000000    52.09000000
   H     91.41000000    82.26000000    50.94000000
   N     87.49000000    79.44000000    52.98000000
   C     86.71000000    78.24000000    53.15000000
   H     85.75900000    78.34900000    52.62900000
   H     87.25400000    77.39100000    52.73700000
   H     86.52600000    78.07300000    54.21100000
   H     87.30000000    80.23000000    53.58000000
  Ca     94.49000000    84.02000000    54.45000000
   O     95.79000000    81.99000000    53.55000000
   H     95.43000000    81.26000000    53.05000000
   H     96.72000000    81.78000000    53.65000000
   O     95.72000000    82.95000000    56.40000000
   H     95.90000000    82.01000000    56.48000000
   H     96.55000000    83.37000000    56.65000000
   O     94.34000000    86.19000000    52.79000000
   H     94.16000000    86.21000000    51.85000000
   H     94.76000000    87.04000000    52.96000000
   O     97.11000000    84.47000000    53.97000000
   H     97.67000000    85.11000000    53.54000000
   H     97.59000000    84.22000000    54.76000000
   O     95.22000000    86.16000000    55.92000000
   H     95.63000000    86.49000000    56.71000000
   H     94.59000000    86.83000000    55.67000000

Ca 1.00



