%chk=loop2.holoCaM-CaMKII.run59.water2.chk
%nprocshared=20
%mem=10GB
%nosave
#b3lyp/svp scf=(tight,noincore,xqc) Test 
#IOP(5/87=12) Density=Current Pop=(MK,readradii) iop(6/33=2) iop(6/42=6)

loop2.holoCaM-CaMKII.run59.water2 

   -2  1 
   C      3.79000000    49.99000000    36.63000000
   C      2.39000000    50.57000000    36.66000000
   O      2.19000000    51.74000000    36.99000000
   H      4.46800000    50.64900000    37.17200000
   H      3.78700000    49.00700000    37.10100000
   H      4.12400000    49.89800000    35.59600000
   N      1.31000000    49.86000000    36.32000000
   C     -0.06000000    50.29000000    36.21000000
   C     -0.63000000    50.75000000    37.54000000
   O     -0.36000000    50.33000000    38.67000000
   C     -0.86000000    49.21000000    35.48000000
   C     -2.15000000    49.72000000    34.83000000
   O     -2.45000000    50.93000000    34.92000000
   O     -2.83000000    48.88000000    34.21000000
   H      1.38000000    48.89000000    36.03000000
   H      0.04000000    51.20000000    35.62000000
   H     -1.13000000    48.43000000    36.19000000
   H     -0.18000000    48.85000000    34.71000000
   N     -1.57000000    51.69000000    37.40000000
   C     -2.53000000    52.19000000    38.37000000
   C     -3.99000000    52.36000000    37.97000000
   O     -4.74000000    52.77000000    38.84000000
   C     -2.01000000    53.51000000    38.93000000
   H     -1.82000000    51.90000000    36.44000000
   H     -2.56000000    51.52000000    39.23000000
   H     -0.97000000    53.37000000    39.22000000
   H     -1.89000000    54.27000000    38.16000000
   H     -2.59000000    53.83000000    39.80000000
   N     -4.44000000    52.00000000    36.76000000
   C     -5.85000000    52.06000000    36.45000000
   C     -6.45000000    50.84000000    35.74000000
   O     -7.64000000    50.59000000    35.85000000
   C     -6.02000000    53.31000000    35.59000000
   C     -4.94000000    53.35000000    34.52000000
   O     -4.79000000    52.29000000    33.87000000
   O     -4.26000000    54.36000000    34.24000000
   H     -3.83000000    51.66000000    36.03000000
   H     -6.42000000    52.20000000    37.37000000
   H     -5.97000000    54.16000000    36.27000000
   H     -6.96000000    53.29000000    35.04000000
   N     -5.61000000    50.04000000    35.08000000
   C     -5.93000000    48.90000000    34.25000000
   C     -6.40000000    49.18000000    32.83000000
   O     -7.19000000    48.36000000    32.37000000
   H     -4.63000000    50.27000000    35.06000000
   H     -6.63000000    48.30000000    34.83000000
   H     -5.04000000    48.32000000    33.98000000
   N     -6.14000000    50.40000000    32.33000000
   C     -6.55000000    50.88000000    31.03000000
   C     -5.79000000    50.22000000    29.89000000
   O     -6.05000000    50.63000000    28.76000000
   C     -6.69000000    52.40000000    30.95000000
   C     -5.34000000    53.09000000    31.02000000
   N     -5.27000000    54.40000000    31.24000000
   O     -4.27000000    52.49000000    30.95000000
   H     -5.63000000    51.02000000    32.94000000
   H     -7.55000000    50.48000000    30.90000000
   H     -7.26000000    52.81000000    31.78000000
   H     -7.13000000    52.77000000    30.03000000
   H     -6.11000000    54.96000000    31.26000000
   H     -4.34000000    54.76000000    31.42000000
   N     -4.87000000    49.26000000    30.00000000
   C     -4.12000000    48.67000000    28.91000000
   C     -3.07000000    49.54000000    28.22000000
   O     -2.67000000    49.13000000    27.13000000
   H     -4.78000000    48.85000000    30.92000000
   H     -4.84000000    48.39000000    28.14000000
   H     -3.67000000    47.75000000    29.28000000
   N     -2.72000000    50.73000000    28.70000000
   C     -1.89000000    51.78000000    28.13000000
   C     -1.06000000    52.35000000    29.27000000
   O     -1.46000000    52.40000000    30.43000000
   C     -2.62000000    52.84000000    27.33000000
   C     -3.56000000    52.46000000    26.18000000
   O     -3.64000000    53.37000000    28.15000000
   H     -3.22000000    51.01000000    29.53000000
   H     -1.11000000    51.30000000    27.53000000
   H     -1.92000000    53.62000000    27.03000000
   H     -3.43000000    53.38000000    29.09000000
   H     -4.45000000    51.97000000    26.56000000
   H     -3.83000000    53.33000000    25.58000000
   H     -3.06000000    51.79000000    25.49000000
   N      0.18000000    52.77000000    28.99000000
   C      1.00000000    53.51000000    29.93000000
   C      0.69000000    54.99000000    29.79000000
   O      0.83000000    55.58000000    28.71000000
   C      2.47000000    53.16000000    29.70000000
   C      2.62000000    51.65000000    29.85000000
   C      3.37000000    54.03000000    30.56000000
   C      4.04000000    51.10000000    29.72000000
   H      0.46000000    52.62000000    28.03000000
   H      0.74000000    53.06000000    30.89000000
   H      2.75000000    53.47000000    28.70000000
   H      2.09000000    51.07000000    29.10000000
   H      2.24000000    51.48000000    30.86000000
   H      4.39000000    54.09000000    30.16000000
   H      2.98000000    55.03000000    30.74000000
   H      3.60000000    53.58000000    31.53000000
   H      4.51000000    51.57000000    28.86000000
   H      4.68000000    51.37000000    30.57000000
   H      4.20000000    50.06000000    29.46000000
   N      0.32000000    55.55000000    30.94000000
   C      0.04000000    56.96000000    31.12000000
   C      1.19000000    57.71000000    31.77000000
   O      2.07000000    57.13000000    32.40000000
   C     -1.19000000    57.11000000    32.00000000
   C     -2.46000000    56.33000000    31.67000000
   O     -2.51000000    55.12000000    31.98000000
   O     -3.33000000    56.77000000    30.89000000
   H      0.17000000    54.98000000    31.76000000
   H     -0.09000000    57.45000000    30.15000000
   H     -1.52000000    58.15000000    31.94000000
   H     -0.93000000    56.80000000    33.02000000
   N      1.27000000    59.04000000    31.67000000
   C      2.48000000    59.76000000    32.04000000
   C      3.04000000    59.53000000    33.43000000
   O      4.26000000    59.37000000    33.52000000
   C      2.41000000    61.24000000    31.68000000
   C      3.73000000    61.97000000    31.66000000
   C      3.97000000    62.92000000    32.67000000
   C      4.76000000    61.64000000    30.78000000
   C      5.23000000    63.52000000    32.76000000
   C      6.04000000    62.19000000    30.93000000
   C      6.27000000    63.20000000    31.88000000
   H      0.57000000    59.58000000    31.19000000
   H      3.23000000    59.32000000    31.38000000
   H      1.68000000    61.79000000    32.27000000
   H      1.93000000    61.20000000    30.70000000
   H      3.20000000    63.10000000    33.39000000
   H      4.61000000    60.98000000    29.94000000
   H      5.41000000    64.18000000    33.59000000
   H      6.84000000    61.84000000    30.29000000
   H      7.25000000    63.65000000    31.88000000
   N      2.23000000    59.53000000    34.49000000
   C      2.71000000    59.16000000    35.80000000
   C      3.31000000    57.78000000    36.00000000
   O      4.22000000    57.57000000    36.81000000
   C      1.47000000    59.27000000    36.69000000
   C      0.76000000    60.46000000    36.04000000
   C      0.89000000    60.07000000    34.57000000
   H      3.43000000    59.89000000    36.16000000
   H      0.98000000    58.30000000    36.64000000
   H      1.76000000    59.49000000    37.72000000
   H     -0.31000000    60.46000000    36.27000000
   H      1.27000000    61.40000000    36.26000000
   H      0.13000000    59.36000000    34.23000000
   H      0.71000000    61.00000000    34.03000000
   N      2.83000000    56.76000000    35.28000000
   C      3.34000000    55.40000000    35.26000000
   C      4.61000000    55.27000000    34.42000000
   O      5.48000000    54.45000000    34.70000000
   C      2.17000000    54.56000000    34.75000000
   C      0.82000000    54.63000000    35.44000000
   C     -0.26000000    53.85000000    34.70000000
   O     -1.35000000    53.58000000    35.24000000
   O     -0.12000000    53.59000000    33.49000000
   H      2.16000000    57.02000000    34.58000000
   H      3.56000000    55.09000000    36.27000000
   H      2.39000000    53.51000000    34.59000000
   H      2.04000000    54.97000000    33.75000000
   H      0.48000000    55.66000000    35.56000000
   H      0.86000000    54.13000000    36.41000000
   N      4.84000000    56.16000000    33.45000000
   C      6.04000000    56.21000000    32.65000000
   H      6.86400000    55.76000000    33.20400000
   H      5.88300000    55.65900000    31.72300000
   H      6.28100000    57.24800000    32.42000000
   H      4.01000000    56.68000000    33.17000000
  Ca     -2.46400000    52.73000000    32.94000000
   O      0.19000000    50.85000000    32.83000000
   H      0.62000000    51.69000000    33.03000000
   H      0.90000000    50.21000000    32.86000000
   O     -2.32400000    50.24000000    31.78000000
   H     -1.40400000    50.01000000    31.78000000
   H     -2.74400000    49.58000000    32.33000000

Ca 1.00



