%chk=loop1.apoCaM-CA-Ng.Init293.run41.water5.chk
%nprocshared=20
%mem=10GB
%nosave
#b3lyp/svp scf=(tight,noincore,xqc) Test 
#IOP(5/87=12) Density=Current Pop=(MK,readradii) iop(6/33=2) iop(6/42=6)

loop1.apoCaM-CA-Ng.Init293.run41.water5 

   0  1 
   C     40.31000000    79.87000000    21.57000000
   C     41.28000000    79.20000000    22.53000000
   O     42.47000000    78.99000000    22.30000000
   H     39.43000000    80.20500000    22.11900000
   H     40.79400000    80.72800000    21.10300000
   H     40.00900000    79.15900000    20.80100000
   N     40.81000000    78.87000000    23.73000000
   C     41.63000000    78.35000000    24.81000000
   C     41.93000000    76.87000000    24.62000000
   O     42.67000000    76.31000000    25.42000000
   C     40.79000000    78.43000000    26.08000000
   C     39.40000000    77.82000000    25.98000000
   O     39.06000000    76.75000000    26.52000000
   O     38.57000000    78.50000000    25.33000000
   H     39.88000000    79.16000000    24.01000000
   H     42.56000000    78.90000000    24.88000000
   H     40.76000000    79.48000000    26.36000000
   H     41.31000000    77.97000000    26.92000000
   N     41.36000000    76.23000000    23.59000000
   C     41.63000000    74.88000000    23.14000000
   C     42.56000000    74.73000000    21.95000000
   O     42.53000000    75.50000000    20.99000000
   C     40.29000000    74.20000000    22.87000000
   C     39.60000000    73.79000000    24.17000000
   C     38.09000000    73.64000000    24.13000000
   C     37.23000000    74.81000000    23.66000000
   N     37.14000000    75.86000000    24.69000000
   H     40.76000000    76.83000000    23.05000000
   H     42.10000000    74.39000000    23.99000000
   H     40.41000000    73.33000000    22.22000000
   H     39.58000000    74.80000000    22.29000000
   H     39.66000000    74.60000000    24.89000000
   H     40.16000000    73.01000000    24.69000000
   H     37.76000000    73.44000000    25.16000000
   H     37.94000000    72.88000000    23.37000000
   H     36.23000000    74.40000000    23.54000000
   H     37.61000000    75.03000000    22.67000000
   H     38.04000000    76.20000000    24.99000000
   H     36.53000000    76.59000000    24.36000000
   H     36.79000000    75.64000000    25.61000000
   N     43.40000000    73.69000000    21.86000000
   C     43.52000000    72.49000000    22.67000000
   C     43.94000000    72.64000000    24.12000000
   O     43.32000000    72.02000000    24.99000000
   C     44.37000000    71.47000000    21.92000000
   C     45.71000000    72.01000000    21.44000000
   O     45.81000000    72.95000000    20.62000000
   O     46.80000000    71.48000000    21.74000000
   H     43.89000000    73.62000000    20.98000000
   H     42.49000000    72.15000000    22.76000000
   H     43.80000000    71.08000000    21.08000000
   H     44.49000000    70.62000000    22.59000000
   N     44.88000000    73.48000000    24.58000000
   C     45.33000000    74.72000000    23.99000000
   C     46.32000000    75.41000000    24.91000000
   O     46.70000000    74.82000000    25.92000000
   H     45.17000000    73.49000000    25.54000000
   H     44.51000000    75.41000000    23.79000000
   H     45.77000000    74.54000000    23.01000000
   N     46.75000000    76.67000000    24.74000000
   C     46.23000000    77.65000000    23.81000000
   C     46.12000000    79.02000000    24.46000000
   O     47.01000000    79.43000000    25.21000000
   C     47.16000000    77.84000000    22.61000000
   C     47.52000000    76.56000000    21.85000000
   O     46.55000000    75.95000000    21.36000000
   O     48.68000000    76.12000000    21.92000000
   H     47.39000000    77.01000000    25.44000000
   H     45.26000000    77.32000000    23.44000000
   H     48.11000000    78.21000000    23.00000000
   H     46.82000000    78.65000000    21.97000000
   N     45.05000000    79.77000000    24.18000000
   C     45.02000000    81.19000000    24.48000000
   C     45.16000000    81.87000000    23.12000000
   O     44.27000000    81.67000000    22.30000000
   H     44.31000000    79.45000000    23.57000000
   H     45.79000000    81.46000000    25.20000000
   H     44.09000000    81.44000000    25.00000000
   N     46.25000000    82.59000000    22.89000000
   C     46.58000000    83.31000000    21.67000000
   C     46.56000000    82.49000000    20.40000000
   O     46.90000000    81.30000000    20.43000000
   C     47.94000000    83.97000000    21.83000000
   C     49.22000000    83.22000000    22.18000000
   O     47.89000000    84.82000000    22.96000000
   H     46.77000000    82.89000000    23.70000000
   H     45.87000000    84.13000000    21.51000000
   H     48.15000000    84.59000000    20.96000000
   H     48.44000000    85.60000000    22.84000000
   H     49.97000000    83.91000000    21.77000000
   H     49.20000000    82.99000000    23.24000000
   H     49.13000000    82.25000000    21.68000000
   N     46.17000000    83.10000000    19.28000000
   C     45.75000000    82.34000000    18.11000000
   C     46.27000000    82.87000000    16.78000000
   O     46.06000000    84.00000000    16.36000000
   C     44.23000000    82.22000000    18.22000000
   C     43.55000000    81.42000000    17.12000000
   C     43.61000000    83.61000000    18.28000000
   C     44.20000000    80.05000000    16.94000000
   H     46.08000000    84.10000000    19.35000000
   H     46.18000000    81.35000000    18.25000000
   H     44.06000000    81.64000000    19.13000000
   H     43.72000000    81.88000000    16.15000000
   H     42.50000000    81.25000000    17.36000000
   H     43.59000000    84.14000000    19.23000000
   H     44.00000000    84.31000000    17.53000000
   H     42.58000000    83.56000000    17.92000000
   H     43.52000000    79.42000000    16.36000000
   H     45.02000000    80.22000000    16.23000000
   H     44.41000000    79.54000000    17.87000000
   N     47.01000000    81.97000000    16.13000000
   C     47.84000000    82.25000000    14.97000000
   C     47.39000000    81.57000000    13.68000000
   O     47.73000000    81.99000000    12.58000000
   C     49.32000000    82.00000000    15.23000000
   C     49.78000000    80.56000000    15.39000000
   O     49.81000000    82.84000000    16.25000000
   H     47.00000000    81.02000000    16.47000000
   H     47.67000000    83.32000000    14.86000000
   H     49.81000000    82.30000000    14.30000000
   H     49.48000000    83.73000000    16.10000000
   H     50.84000000    80.58000000    15.64000000
   H     49.17000000    80.05000000    16.15000000
   H     49.72000000    79.97000000    14.47000000
   N     46.61000000    80.50000000    13.79000000
   C     46.00000000    79.69000000    12.75000000
   C     47.02000000    78.81000000    12.04000000
   O     48.21000000    79.09000000    11.96000000
   C     45.04000000    80.56000000    11.95000000
   C     44.00000000    81.27000000    12.81000000
   O     44.35000000    79.78000000    11.01000000
   H     46.38000000    80.26000000    14.74000000
   H     45.36000000    78.99000000    13.29000000
   H     45.53000000    81.41000000    11.46000000
   H     43.58000000    80.23000000    10.65000000
   H     44.44000000    81.65000000    13.73000000
   H     43.48000000    82.00000000    12.18000000
   H     43.22000000    80.61000000    13.20000000
   N     46.51000000    77.87000000    11.24000000
   C     47.20000000    77.00000000    10.31000000
   C     47.44000000    75.56000000    10.73000000
   O     48.37000000    74.94000000    10.20000000
   C     46.52000000    77.07000000     8.94000000
   C     46.72000000    78.36000000     8.16000000
   C     48.01000000    78.42000000     7.35000000
   C     48.26000000    79.72000000     6.58000000
   N     48.54000000    79.58000000     5.14000000
   H     45.51000000    77.79000000    11.31000000
   H     48.21000000    77.40000000    10.18000000
   H     45.48000000    77.03000000     9.28000000
   H     46.77000000    76.25000000     8.28000000
   H     46.65000000    79.25000000     8.79000000
   H     45.82000000    78.42000000     7.54000000
   H     47.82000000    77.59000000     6.67000000
   H     48.87000000    78.10000000     7.94000000
   H     49.07000000    80.34000000     6.97000000
   H     47.34000000    80.31000000     6.56000000
   H     48.20000000    80.41000000     4.67000000
   H     49.50000000    79.40000000     4.92000000
   H     48.01000000    78.79000000     4.79000000
   N     46.58000000    74.79000000    11.39000000
   C     45.40000000    74.97000000    12.21000000
   C     44.33000000    75.75000000    11.45000000
   O     43.83000000    76.72000000    12.01000000
   C     45.94000000    75.47000000    13.55000000
   C     44.87000000    75.61000000    14.63000000
   C     45.53000000    75.63000000    16.00000000
   O     45.51000000    76.66000000    16.71000000
   O     45.94000000    74.55000000    16.47000000
   H     46.80000000    73.80000000    11.33000000
   H     45.03000000    73.95000000    12.34000000
   H     46.43000000    76.40000000    13.28000000
   H     46.71000000    74.74000000    13.81000000
   H     44.02000000    74.93000000    14.61000000
   H     44.50000000    76.63000000    14.52000000
   N     43.93000000    75.19000000    10.31000000
   C     42.73000000    75.47000000     9.54000000
   H     41.96100000    75.87100000    10.20000000
   H     42.95800000    76.20000000     8.76300000
   H     42.36900000    74.55000000     9.08000000
   H     44.48000000    74.41000000     9.99000000
  Ca     46.03000000    75.07000000    19.02000000
   O     47.69000000    77.18000000    18.75000000
   H     48.47000000    77.48000000    19.22000000
   H     47.54000000    77.86000000    18.09000000
   O     46.44000000    72.28000000    17.93000000
   H     46.56000000    71.40000000    17.57000000
   H     46.04000000    72.14000000    18.79000000
   O     48.67000000    74.32000000    19.39000000
   H     49.41000000    74.46000000    18.80000000
   H     48.88000000    74.83000000    20.17000000
   O     44.45000000    77.12000000    19.15000000
   H     43.50000000    77.22000000    19.13000000
   H     44.77000000    77.92000000    19.58000000
   O     43.53000000    73.83000000    18.70000000
   H     42.89000000    73.28000000    19.15000000
   H     43.42000000    73.61000000    17.77000000

Ca 1.00



