%chk=loop2.holoCaM.run25.water2.chk
%nprocshared=20
%mem=10GB
%nosave
#b3lyp/svp scf=(tight,noincore,xqc) Test 
#IOP(5/87=12) Density=Current Pop=(MK,readradii) iop(6/33=2) iop(6/42=6)

loop2.holoCaM.run25.water2 

   -2  1 
   C     55.47000000    58.67000000     9.90000000
   C     54.17000000    59.09000000    10.58000000
   O     54.15000000    58.90000000    11.79000000
   H     56.26800000    58.62200000    10.64100000
   H     55.34100000    57.69000000     9.44200000
   H     55.73100000    59.39900000     9.13300000
   N     53.10000000    59.46000000     9.87000000
   C     51.86000000    59.96000000    10.41000000
   C     50.99000000    58.87000000    11.02000000
   O     50.36000000    58.10000000    10.30000000
   C     51.22000000    60.68000000     9.23000000
   C     49.88000000    61.32000000     9.57000000
   O     49.57000000    61.44000000    10.78000000
   O     49.14000000    61.64000000     8.62000000
   H     53.24000000    59.52000000     8.87000000
   H     52.01000000    60.71000000    11.19000000
   H     51.11000000    60.08000000     8.32000000
   H     51.93000000    61.46000000     8.92000000
   N     50.99000000    58.70000000    12.34000000
   C     50.60000000    57.47000000    13.00000000
   C     49.10000000    57.37000000    13.23000000
   O     48.63000000    56.28000000    13.54000000
   C     51.43000000    57.21000000    14.25000000
   H     51.21000000    59.49000000    12.94000000
   H     50.84000000    56.65000000    12.32000000
   H     51.17000000    56.22000000    14.62000000
   H     52.43000000    57.11000000    13.81000000
   H     51.50000000    58.03000000    14.97000000
   N     48.29000000    58.40000000    12.95000000
   C     46.86000000    58.40000000    12.71000000
   C     46.47000000    58.82000000    11.30000000
   O     45.30000000    58.88000000    10.91000000
   C     46.11000000    59.24000000    13.73000000
   C     46.31000000    60.74000000    13.91000000
   O     47.24000000    61.33000000    13.33000000
   O     45.55000000    61.37000000    14.67000000
   H     48.71000000    59.31000000    12.85000000
   H     46.56000000    57.35000000    12.73000000
   H     46.33000000    58.81000000    14.71000000
   H     45.03000000    59.14000000    13.56000000
   N     47.39000000    59.14000000    10.39000000
   C     47.24000000    59.09000000     8.95000000
   C     46.36000000    60.24000000     8.48000000
   O     45.72000000    60.05000000     7.45000000
   H     48.36000000    59.13000000    10.65000000
   H     46.85000000    58.13000000     8.61000000
   H     48.22000000    59.31000000     8.52000000
   N     46.28000000    61.39000000     9.15000000
   C     45.26000000    62.40000000     8.95000000
   C     45.72000000    63.47000000     7.98000000
   O     44.94000000    64.26000000     7.45000000
   C     44.71000000    62.87000000    10.30000000
   C     45.69000000    63.89000000    10.85000000
   N     45.27000000    65.16000000    10.83000000
   O     46.84000000    63.69000000    11.23000000
   H     46.92000000    61.54000000     9.92000000
   H     44.39000000    62.05000000     8.39000000
   H     44.68000000    62.07000000    11.04000000
   H     43.78000000    63.43000000    10.23000000
   H     44.35000000    65.40000000    10.49000000
   H     45.89000000    65.91000000    11.10000000
   N     46.99000000    63.36000000     7.58000000
   C     47.64000000    64.08000000     6.50000000
   C     48.64000000    65.14000000     6.94000000
   O     49.22000000    65.88000000     6.16000000
   H     47.65000000    62.72000000     7.99000000
   H     46.88000000    64.56000000     5.89000000
   H     48.13000000    63.45000000     5.76000000
   N     48.83000000    65.23000000     8.26000000
   C     49.67000000    66.14000000     9.00000000
   C     50.59000000    65.48000000    10.02000000
   O     50.09000000    64.65000000    10.78000000
   C     49.03000000    67.32000000     9.72000000
   C     48.60000000    68.36000000     8.69000000
   O     47.79000000    66.95000000    10.30000000
   H     48.37000000    64.53000000     8.83000000
   H     50.35000000    66.52000000     8.23000000
   H     49.66000000    67.81000000    10.47000000
   H     47.96000000    66.45000000    11.11000000
   H     47.89000000    67.95000000     7.97000000
   H     48.03000000    69.15000000     9.18000000
   H     49.53000000    68.77000000     8.31000000
   N     51.81000000    65.97000000    10.19000000
   C     52.80000000    65.53000000    11.15000000
   C     52.58000000    66.29000000    12.46000000
   O     52.74000000    67.51000000    12.47000000
   C     54.19000000    65.74000000    10.56000000
   C     54.46000000    64.69000000     9.49000000
   C     55.26000000    65.76000000    11.64000000
   C     55.78000000    64.90000000     8.76000000
   H     52.10000000    66.64000000     9.48000000
   H     52.67000000    64.48000000    11.38000000
   H     54.24000000    66.71000000    10.05000000
   H     53.68000000    64.70000000     8.74000000
   H     54.53000000    63.69000000     9.92000000
   H     55.18000000    66.60000000    12.33000000
   H     55.16000000    64.82000000    12.18000000
   H     56.22000000    65.95000000    11.16000000
   H     55.88000000    64.21000000     7.92000000
   H     55.78000000    65.97000000     8.57000000
   H     56.69000000    64.83000000     9.35000000
   N     52.41000000    65.59000000    13.59000000
   C     52.51000000    66.08000000    14.95000000
   C     53.94000000    65.98000000    15.46000000
   O     54.77000000    65.28000000    14.87000000
   C     51.50000000    65.39000000    15.86000000
   C     50.09000000    65.34000000    15.30000000
   O     49.59000000    64.34000000    14.73000000
   O     49.50000000    66.45000000    15.27000000
   H     52.28000000    64.59000000    13.59000000
   H     52.22000000    67.13000000    14.89000000
   H     51.49000000    65.94000000    16.81000000
   H     51.82000000    64.39000000    16.14000000
   N     54.28000000    66.62000000    16.58000000
   C     55.64000000    66.56000000    17.08000000
   C     56.15000000    65.18000000    17.47000000
   O     57.32000000    64.92000000    17.20000000
   C     55.70000000    67.51000000    18.27000000
   C     57.11000000    67.93000000    18.61000000
   C     57.95000000    68.49000000    17.65000000
   C     57.62000000    67.53000000    19.85000000
   C     59.31000000    68.65000000    17.96000000
   C     58.97000000    67.73000000    20.19000000
   C     59.80000000    68.34000000    19.24000000
   H     53.56000000    67.00000000    17.17000000
   H     56.29000000    66.92000000    16.28000000
   H     55.19000000    67.17000000    19.17000000
   H     55.20000000    68.45000000    18.03000000
   H     57.68000000    68.72000000    16.63000000
   H     56.94000000    67.01000000    20.51000000
   H     60.02000000    69.08000000    17.27000000
   H     59.37000000    67.59000000    21.18000000
   H     60.82000000    68.57000000    19.48000000
   N     55.36000000    64.31000000    18.10000000
   C     55.73000000    62.91000000    18.22000000
   C     56.00000000    62.17000000    16.92000000
   O     56.87000000    61.30000000    16.87000000
   C     54.61000000    62.26000000    19.04000000
   C     53.95000000    63.37000000    19.86000000
   C     54.16000000    64.52000000    18.88000000
   H     56.63000000    62.92000000    18.83000000
   H     53.94000000    61.66000000    18.42000000
   H     55.11000000    61.61000000    19.75000000
   H     52.88000000    63.20000000    19.95000000
   H     54.60000000    63.47000000    20.73000000
   H     53.33000000    64.56000000    18.16000000
   H     54.11000000    65.46000000    19.43000000
   N     55.29000000    62.50000000    15.84000000
   C     55.61000000    61.97000000    14.53000000
   C     56.79000000    62.60000000    13.80000000
   O     57.48000000    61.98000000    13.00000000
   C     54.32000000    62.07000000    13.72000000
   C     53.06000000    61.44000000    14.31000000
   C     51.79000000    61.93000000    13.63000000
   O     51.66000000    63.03000000    13.05000000
   O     50.70000000    61.31000000    13.72000000
   H     54.66000000    63.29000000    15.73000000
   H     55.89000000    60.92000000    14.64000000
   H     54.42000000    61.63000000    12.73000000
   H     54.21000000    63.15000000    13.63000000
   H     52.99000000    61.84000000    15.32000000
   H     53.14000000    60.36000000    14.22000000
   N     57.10000000    63.85000000    14.17000000
   C     58.28000000    64.61000000    13.79000000
   H     59.10900000    63.92600000    13.61000000
   H     58.07200000    65.17500000    12.88200000
   H     58.54500000    65.29700000    14.59400000
   H     56.42000000    64.33000000    14.74000000
  Ca     49.05000000    63.01000000    12.66000000
   O     46.78000000    63.84000000    14.39000000
   H     46.45000000    62.97000000    14.16000000
   H     46.09000000    64.23000000    14.91000000
   O     48.02000000    65.77000000    12.92000000
   H     47.24000000    65.39000000    13.32000000
   H     48.54000000    66.08000000    13.66000000

Ca 1.00



