%chk=loop2.apoCaM-CA-Ng.Init31.run34.water4.chk
%nprocshared=20
%mem=10GB
%nosave
#b3lyp/svp scf=(tight,noincore,xqc) Test 
#IOP(5/87=12) Density=Current Pop=(MK,readradii) iop(6/33=2) iop(6/42=6)

loop2.apoCaM-CA-Ng.Init31.run34.water4 

   -2  1 
   C    117.54000000    70.13000000    79.74000000
   C    116.41000000    69.70000000    78.83000000
   O    115.93000000    68.58000000    79.02000000
   H    118.36900000    70.50300000    79.13800000
   H    117.19100000    70.91900000    80.40600000
   H    117.87600000    69.27800000    80.33100000
   N    115.89000000    70.44000000    77.85000000
   C    116.02000000    71.86000000    77.55000000
   C    116.42000000    72.16000000    76.11000000
   O    115.74000000    71.72000000    75.18000000
   C    114.89000000    72.81000000    77.95000000
   C    113.53000000    72.22000000    77.62000000
   O    112.57000000    72.81000000    78.16000000
   O    113.36000000    71.24000000    76.86000000
   H    115.13000000    70.03000000    77.33000000
   H    116.87000000    72.26000000    78.10000000
   H    114.92000000    73.75000000    77.40000000
   H    114.96000000    72.99000000    79.02000000
   N    117.40000000    73.04000000    75.93000000
   C    117.76000000    73.72000000    74.70000000
   C    116.77000000    74.70000000    74.11000000
   O    117.18000000    75.73000000    73.57000000
   C    118.30000000    72.73000000    73.67000000
   H    117.76000000    73.56000000    76.72000000
   H    118.60000000    74.35000000    75.00000000
   H    119.20000000    72.29000000    74.08000000
   H    117.53000000    71.99000000    73.43000000
   H    118.57000000    73.17000000    72.70000000
   N    115.47000000    74.38000000    74.11000000
   C    114.34000000    75.05000000    73.50000000
   C    113.03000000    74.72000000    74.20000000
   O    113.00000000    73.63000000    74.78000000
   C    114.26000000    74.70000000    72.02000000
   C    114.35000000    73.22000000    71.68000000
   O    114.04000000    72.35000000    72.53000000
   O    114.60000000    72.90000000    70.49000000
   H    115.28000000    73.47000000    74.51000000
   H    114.59000000    76.11000000    73.57000000
   H    115.11000000    75.17000000    71.53000000
   H    113.31000000    75.11000000    71.67000000
   N    112.01000000    75.57000000    74.07000000
   C    110.64000000    75.17000000    74.30000000
   C    110.10000000    74.22000000    73.23000000
   O    110.40000000    74.36000000    72.05000000
   H    112.24000000    76.42000000    73.58000000
   H    110.05000000    76.08000000    74.37000000
   H    110.53000000    74.66000000    75.26000000
   N    109.16000000    73.33000000    73.54000000
   C    108.30000000    72.66000000    72.58000000
   C    106.89000000    73.11000000    72.95000000
   O    106.37000000    72.73000000    74.00000000
   C    108.63000000    71.18000000    72.56000000
   C    109.99000000    70.96000000    71.90000000
   N    110.11000000    70.66000000    70.61000000
   O    111.00000000    71.09000000    72.59000000
   H    109.03000000    73.17000000    74.53000000
   H    108.49000000    73.04000000    71.58000000
   H    107.86000000    70.66000000    71.99000000
   H    108.60000000    70.78000000    73.57000000
   H    109.23000000    70.68000000    70.12000000
   H    111.03000000    70.61000000    70.20000000
   N    106.26000000    73.94000000    72.12000000
   C    105.01000000    74.64000000    72.33000000
   C    103.89000000    74.15000000    71.43000000
   O    104.12000000    73.51000000    70.41000000
   H    106.74000000    74.08000000    71.24000000
   H    105.22000000    75.67000000    72.06000000
   H    104.82000000    74.50000000    73.40000000
   N    102.63000000    74.35000000    71.83000000
   C    102.22000000    75.00000000    73.05000000
   C    102.24000000    74.10000000    74.28000000
   O    102.54000000    74.65000000    75.34000000
   C    100.83000000    75.62000000    72.96000000
   C    100.81000000    76.78000000    71.96000000
   O     99.92000000    74.64000000    72.52000000
   H    101.84000000    74.06000000    71.27000000
   H    102.86000000    75.85000000    73.31000000
   H    100.47000000    75.93000000    73.94000000
   H     99.94000000    74.51000000    71.57000000
   H    101.59000000    76.75000000    71.21000000
   H     99.86000000    76.93000000    71.44000000
   H    100.99000000    77.71000000    72.50000000
   N    102.02000000    72.79000000    74.12000000
   C    101.44000000    71.96000000    75.15000000
   C    100.09000000    72.46000000    75.66000000
   O    100.03000000    73.47000000    76.35000000
   C    102.41000000    71.63000000    76.28000000
   C    103.83000000    71.22000000    75.90000000
   C    101.79000000    70.77000000    77.38000000
   C    103.88000000    70.16000000    74.80000000
   H    101.81000000    72.46000000    73.19000000
   H    101.29000000    70.99000000    74.67000000
   H    102.53000000    72.55000000    76.85000000
   H    104.20000000    70.85000000    76.85000000
   H    104.48000000    71.99000000    75.49000000
   H    101.52000000    69.78000000    77.02000000
   H    102.56000000    70.75000000    78.15000000
   H    100.85000000    71.14000000    77.80000000
   H    103.16000000    69.37000000    75.02000000
   H    103.70000000    70.64000000    73.84000000
   H    104.84000000    69.64000000    74.78000000
   N     98.93000000    72.00000000    75.20000000
   C     98.69000000    70.87000000    74.32000000
   C     98.40000000    69.62000000    75.14000000
   O     99.15000000    68.65000000    75.15000000
   C     97.51000000    71.17000000    73.39000000
   C     96.25000000    71.78000000    73.98000000
   O     96.20000000    72.09000000    75.19000000
   O     95.30000000    71.94000000    73.19000000
   H     98.09000000    72.50000000    75.46000000
   H     99.54000000    70.60000000    73.69000000
   H     97.16000000    70.21000000    73.00000000
   H     97.94000000    71.77000000    72.59000000
   N     97.30000000    69.53000000    75.89000000
   C     96.91000000    68.38000000    76.68000000
   C     95.53000000    67.84000000    76.31000000
   O     94.78000000    68.66000000    75.77000000
   C     96.98000000    68.84000000    78.13000000
   C     95.87000000    69.70000000    78.69000000
   C     95.91000000    71.09000000    78.53000000
   C     94.73000000    69.10000000    79.22000000
   C     94.85000000    71.90000000    78.96000000
   C     93.65000000    69.91000000    79.61000000
   C     93.72000000    71.30000000    79.53000000
   H     96.67000000    70.32000000    75.88000000
   H     97.62000000    67.56000000    76.55000000
   H     97.89000000    69.38000000    78.40000000
   H     97.05000000    67.95000000    78.75000000
   H     96.69000000    71.58000000    77.96000000
   H     94.61000000    68.03000000    79.35000000
   H     94.88000000    72.98000000    78.94000000
   H     92.73000000    69.51000000    80.00000000
   H     92.93000000    71.92000000    79.95000000
   N     95.15000000    66.61000000    76.65000000
   C     95.93000000    65.60000000    77.34000000
   C     97.10000000    65.02000000    76.57000000
   O     97.11000000    65.10000000    75.35000000
   C     94.93000000    64.48000000    77.62000000
   C     93.97000000    64.55000000    76.44000000
   C     93.87000000    66.06000000    76.25000000
   H     96.33000000    65.93000000    78.30000000
   H     95.32000000    63.48000000    77.80000000
   H     94.36000000    64.81000000    78.49000000
   H     94.33000000    64.17000000    75.48000000
   H     93.04000000    64.00000000    76.56000000
   H     93.68000000    66.37000000    75.22000000
   H     93.06000000    66.47000000    76.84000000
   N     97.96000000    64.26000000    77.26000000
   C     99.14000000    63.61000000    76.74000000
   C    100.48000000    63.79000000    77.44000000
   O    101.44000000    63.15000000    77.01000000
   C     98.85000000    62.15000000    76.38000000
   C     98.80000000    61.28000000    77.63000000
   C     98.62000000    59.78000000    77.51000000
   O     98.96000000    59.19000000    76.46000000
   O     98.07000000    59.21000000    78.48000000
   H     97.88000000    64.10000000    78.26000000
   H     99.38000000    64.02000000    75.76000000
   H     99.61000000    61.67000000    75.77000000
   H     97.84000000    62.09000000    75.97000000
   H     97.90000000    61.67000000    78.11000000
   H     99.64000000    61.52000000    78.29000000
   N    100.87000000    64.63000000    78.41000000
   C    100.19000000    65.65000000    79.18000000
   H     99.20100000    65.29000000    79.46500000
   H    100.76700000    65.87400000    80.07700000
   H    100.08800000    66.55300000    78.57800000
   H    101.85000000    64.62000000    78.64000000
  Ca    113.09500000    71.02000000    74.36000000
   O    114.74500000    68.95000000    74.57000000
   H    114.23500000    68.14000000    74.54000000
   H    115.53500000    68.72000000    75.05000000
   O    111.65500000    68.79000000    75.03000000
   H    111.17500000    67.97000000    74.91000000
   H    112.15500000    68.66000000    75.83000000
   O    110.72500000    71.49000000    75.80000000
   H    111.17500000    71.89000000    76.55000000
   H    110.08500000    70.90000000    76.19000000
   O    113.38500000    69.63000000    71.51000000
   H    113.02500000    68.76000000    71.30000000
   H    112.90500000    70.23000000    70.94000000

Ca 1.00



