%chk=loop2.holoCaM.run85.water0.chk
%nprocshared=20
%mem=10GB
%nosave
#b3lyp/svp scf=(tight,noincore,xqc) Test 
#IOP(5/87=12) Density=Current Pop=(MK,readradii) iop(6/33=2) iop(6/42=6)

loop2.holoCaM.run85.water0 

   -2  1 
   C     31.76000000    81.74000000    39.85000000
   C     30.67000000    81.62000000    40.91000000
   O     30.35000000    80.48000000    41.22000000
   H     32.67500000    81.27400000    40.21600000
   H     31.43700000    81.23800000    38.93800000
   H     31.94800000    82.79300000    39.63900000
   N     29.99000000    82.66000000    41.39000000
   C     28.93000000    82.67000000    42.38000000
   C     27.78000000    81.73000000    42.06000000
   O     27.42000000    81.57000000    40.89000000
   C     28.51000000    84.12000000    42.57000000
   C     27.41000000    84.38000000    43.60000000
   O     27.47000000    83.89000000    44.75000000
   O     26.49000000    85.15000000    43.28000000
   H     30.14000000    83.54000000    40.92000000
   H     29.34000000    82.42000000    43.36000000
   H     28.17000000    84.50000000    41.61000000
   H     29.41000000    84.62000000    42.94000000
   N     27.51000000    80.90000000    43.07000000
   C     26.60000000    79.78000000    42.94000000
   C     25.28000000    79.80000000    43.71000000
   O     24.46000000    78.91000000    43.52000000
   C     27.43000000    78.53000000    43.24000000
   H     27.99000000    81.08000000    43.94000000
   H     26.43000000    79.73000000    41.87000000
   H     28.35000000    78.48000000    42.65000000
   H     27.71000000    78.34000000    44.27000000
   H     26.87000000    77.69000000    42.83000000
   N     25.15000000    80.78000000    44.60000000
   C     23.98000000    80.98000000    45.43000000
   C     23.29000000    82.31000000    45.15000000
   O     22.29000000    82.60000000    45.80000000
   C     24.37000000    80.78000000    46.90000000
   C     25.49000000    81.73000000    47.30000000
   O     26.36000000    81.32000000    48.10000000
   O     25.54000000    82.88000000    46.82000000
   H     25.93000000    81.41000000    44.74000000
   H     23.24000000    80.21000000    45.21000000
   H     24.54000000    79.74000000    47.15000000
   H     23.56000000    81.18000000    47.51000000
   N     23.90000000    83.13000000    44.29000000
   C     23.44000000    84.44000000    43.85000000
   C     23.66000000    85.62000000    44.78000000
   O     23.26000000    86.73000000    44.45000000
   H     24.71000000    82.73000000    43.84000000
   H     22.36000000    84.42000000    43.81000000
   H     23.88000000    84.84000000    42.94000000
   N     24.32000000    85.43000000    45.93000000
   C     24.40000000    86.45000000    46.95000000
   C     25.41000000    87.53000000    46.60000000
   O     25.65000000    88.48000000    47.35000000
   C     24.47000000    85.71000000    48.28000000
   C     25.87000000    85.20000000    48.60000000
   N     26.08000000    84.53000000    49.74000000
   O     26.85000000    85.40000000    47.88000000
   H     24.63000000    84.48000000    46.09000000
   H     23.44000000    86.96000000    46.95000000
   H     23.75000000    84.90000000    48.27000000
   H     24.30000000    86.44000000    49.08000000
   H     25.28000000    84.43000000    50.35000000
   H     27.03000000    84.51000000    50.10000000
   N     26.13000000    87.39000000    45.49000000
   C     27.03000000    88.42000000    45.00000000
   C     28.36000000    88.54000000    45.74000000
   O     29.16000000    89.45000000    45.51000000
   H     26.10000000    86.53000000    44.95000000
   H     26.53000000    89.37000000    45.15000000
   H     27.21000000    88.30000000    43.93000000
   N     28.60000000    87.73000000    46.77000000
   C     29.86000000    87.55000000    47.46000000
   C     30.35000000    86.11000000    47.42000000
   O     29.57000000    85.23000000    47.07000000
   C     29.63000000    87.97000000    48.91000000
   C     29.35000000    89.46000000    49.04000000
   O     28.56000000    87.26000000    49.51000000
   H     27.88000000    87.11000000    47.13000000
   H     30.63000000    88.25000000    47.12000000
   H     30.54000000    87.83000000    49.49000000
   H     28.96000000    86.46000000    49.84000000
   H     30.27000000    90.03000000    48.87000000
   H     28.62000000    89.71000000    48.28000000
   H     28.94000000    89.63000000    50.04000000
   N     31.67000000    85.98000000    47.58000000
   C     32.50000000    84.81000000    47.37000000
   C     32.60000000    84.02000000    48.66000000
   O     32.99000000    84.53000000    49.71000000
   C     33.84000000    85.19000000    46.74000000
   C     33.72000000    85.88000000    45.39000000
   C     34.86000000    84.05000000    46.63000000
   C     33.31000000    84.97000000    44.23000000
   H     32.17000000    86.82000000    47.83000000
   H     31.97000000    84.22000000    46.63000000
   H     34.18000000    85.90000000    47.50000000
   H     34.72000000    86.27000000    45.20000000
   H     32.96000000    86.65000000    45.51000000
   H     34.51000000    83.14000000    46.15000000
   H     35.68000000    84.34000000    45.97000000
   H     35.19000000    83.73000000    47.62000000
   H     33.97000000    84.11000000    44.13000000
   H     32.27000000    84.69000000    44.36000000
   H     33.32000000    85.51000000    43.29000000
   N     32.15000000    82.77000000    48.49000000
   C     32.30000000    81.62000000    49.37000000
   C     33.48000000    80.76000000    48.94000000
   O     33.90000000    80.83000000    47.79000000
   C     30.97000000    80.87000000    49.41000000
   C     29.80000000    81.72000000    49.90000000
   O     28.93000000    82.12000000    49.10000000
   O     29.82000000    81.87000000    51.14000000
   H     31.91000000    82.50000000    47.55000000
   H     32.57000000    81.93000000    50.38000000
   H     31.08000000    80.09000000    50.16000000
   H     30.75000000    80.39000000    48.46000000
   N     33.96000000    79.92000000    49.86000000
   C     35.06000000    79.07000000    49.43000000
   C     34.90000000    78.13000000    48.24000000
   O     35.80000000    78.22000000    47.41000000
   C     35.52000000    78.29000000    50.66000000
   C     36.87000000    77.63000000    50.57000000
   C     38.04000000    78.32000000    50.21000000
   C     36.93000000    76.29000000    50.96000000
   C     39.26000000    77.63000000    50.14000000
   C     38.15000000    75.61000000    50.87000000
   C     39.31000000    76.27000000    50.46000000
   H     33.62000000    79.91000000    50.81000000
   H     35.82000000    79.81000000    49.19000000
   H     34.76000000    77.56000000    50.92000000
   H     35.55000000    79.05000000    51.44000000
   H     38.00000000    79.36000000    49.93000000
   H     36.06000000    75.74000000    51.28000000
   H     40.14000000    78.20000000    49.87000000
   H     38.15000000    74.56000000    51.13000000
   H     40.29000000    75.81000000    50.50000000
   N     33.80000000    77.43000000    47.96000000
   C     33.63000000    76.77000000    46.68000000
   C     33.92000000    77.60000000    45.44000000
   O     34.44000000    77.21000000    44.39000000
   C     32.23000000    76.17000000    46.70000000
   C     31.85000000    76.08000000    48.17000000
   C     32.66000000    77.21000000    48.82000000
   H     34.35000000    75.95000000    46.57000000
   H     31.55000000    76.85000000    46.19000000
   H     32.23000000    75.19000000    46.22000000
   H     30.79000000    76.16000000    48.39000000
   H     32.20000000    75.10000000    48.50000000
   H     32.12000000    78.16000000    48.92000000
   H     33.10000000    76.92000000    49.77000000
   N     33.49000000    78.86000000    45.53000000
   C     33.68000000    79.91000000    44.55000000
   C     35.08000000    80.51000000    44.53000000
   O     35.57000000    81.05000000    43.54000000
   C     32.63000000    80.99000000    44.79000000
   C     31.16000000    80.57000000    44.76000000
   C     30.21000000    81.45000000    45.55000000
   O     30.48000000    82.54000000    46.10000000
   O     29.03000000    81.03000000    45.66000000
   H     33.09000000    79.14000000    46.41000000
   H     33.56000000    79.57000000    43.52000000
   H     32.76000000    81.65000000    43.94000000
   H     32.89000000    81.50000000    45.72000000
   H     31.02000000    79.57000000    45.18000000
   H     30.87000000    80.55000000    43.71000000
   N     35.78000000    80.56000000    45.66000000
   C     37.15000000    81.04000000    45.63000000
   H     37.78900000    80.28400000    45.17300000
   H     37.20100000    81.95900000    45.04600000
   H     37.48900000    81.23600000    46.64700000
   H     35.38000000    80.13000000    46.49000000
  Ca     28.13000000    83.09000000    46.97000000

Ca 1.00



