%chk=loop2.apoCaM-CA-Ng.Init31.run27.water4.chk
%nprocshared=20
%mem=10GB
%nosave
#b3lyp/svp scf=(tight,noincore,xqc) Test 
#IOP(5/87=12) Density=Current Pop=(MK,readradii) iop(6/33=2) iop(6/42=6)

loop2.apoCaM-CA-Ng.Init31.run27.water4 

   -2  1 
   C     90.18000000    57.08000000    64.16000000
   C     88.74000000    56.93000000    64.65000000
   O     88.55000000    56.11000000    65.54000000
   H     90.84400000    56.49900000    64.80100000
   H     90.25500000    56.71600000    63.13500000
   H     90.46900000    58.13000000    64.19600000
   N     87.71000000    57.55000000    64.07000000
   C     87.65000000    58.77000000    63.29000000
   C     86.53000000    58.76000000    62.26000000
   O     85.38000000    58.53000000    62.64000000
   C     87.52000000    60.02000000    64.16000000
   C     86.56000000    59.92000000    65.34000000
   O     86.99000000    60.12000000    66.50000000
   O     85.35000000    59.71000000    65.14000000
   H     86.82000000    57.16000000    64.32000000
   H     88.57000000    58.86000000    62.72000000
   H     87.19000000    60.89000000    63.61000000
   H     88.49000000    60.31000000    64.57000000
   N     86.83000000    58.92000000    60.97000000
   C     85.96000000    58.73000000    59.82000000
   C     84.79000000    59.70000000    59.80000000
   O     84.89000000    60.71000000    59.11000000
   C     85.51000000    57.30000000    59.55000000
   H     87.81000000    59.04000000    60.78000000
   H     86.55000000    59.03000000    58.95000000
   H     86.36000000    56.66000000    59.79000000
   H     84.79000000    57.01000000    60.31000000
   H     85.04000000    57.19000000    58.58000000
   N     83.76000000    59.48000000    60.63000000
   C     82.74000000    60.48000000    60.88000000
   C     83.00000000    61.20000000    62.19000000
   O     83.18000000    60.54000000    63.21000000
   C     81.33000000    59.91000000    60.85000000
   C     81.06000000    58.66000000    61.68000000
   O     81.99000000    58.10000000    62.31000000
   O     79.90000000    58.22000000    61.81000000
   H     83.87000000    58.74000000    61.30000000
   H     82.86000000    61.17000000    60.03000000
   H     81.10000000    59.55000000    59.86000000
   H     80.64000000    60.75000000    60.98000000
   N     82.93000000    62.54000000    62.13000000
   C     82.93000000    63.32000000    63.35000000
   C     81.60000000    63.17000000    64.08000000
   O     80.55000000    63.53000000    63.55000000
   H     82.91000000    63.09000000    61.29000000
   H     83.01000000    64.39000000    63.17000000
   H     83.73000000    62.98000000    64.00000000
   N     81.64000000    62.72000000    65.34000000
   C     80.52000000    62.34000000    66.17000000
   C     80.70000000    63.00000000    67.53000000
   O     79.82000000    62.87000000    68.38000000
   C     80.21000000    60.86000000    66.37000000
   C     80.34000000    59.98000000    65.14000000
   N     79.67000000    60.30000000    64.02000000
   O     81.15000000    59.06000000    65.16000000
   H     82.55000000    62.38000000    65.62000000
   H     79.58000000    62.60000000    65.70000000
   H     79.22000000    60.73000000    66.81000000
   H     80.98000000    60.39000000    66.99000000
   H     79.41000000    61.27000000    63.91000000
   H     79.80000000    59.69000000    63.23000000
   N     81.80000000    63.72000000    67.75000000
   C     82.18000000    64.19000000    69.07000000
   C     82.38000000    63.08000000    70.10000000
   O     82.64000000    61.96000000    69.69000000
   H     82.49000000    63.72000000    67.01000000
   H     81.38000000    64.83000000    69.44000000
   H     83.06000000    64.81000000    68.93000000
   N     82.24000000    63.27000000    71.42000000
   C     81.84000000    64.51000000    72.04000000
   C     82.69000000    64.87000000    73.25000000
   O     82.87000000    66.06000000    73.51000000
   C     80.37000000    64.48000000    72.48000000
   C     79.41000000    63.84000000    71.48000000
   O     80.10000000    63.75000000    73.65000000
   H     82.42000000    62.47000000    72.01000000
   H     82.01000000    65.28000000    71.28000000
   H     80.01000000    65.47000000    72.75000000
   H     79.23000000    63.97000000    73.98000000
   H     79.50000000    64.39000000    70.55000000
   H     79.58000000    62.77000000    71.34000000
   H     78.40000000    63.99000000    71.86000000
   N     83.27000000    63.90000000    73.96000000
   C     84.25000000    64.06000000    75.01000000
   C     83.74000000    64.89000000    76.18000000
   O     84.20000000    66.00000000    76.43000000
   C     85.59000000    64.49000000    74.43000000
   C     85.89000000    63.92000000    73.04000000
   C     86.73000000    64.30000000    75.42000000
   C     85.97000000    62.40000000    72.93000000
   H     83.11000000    62.93000000    73.74000000
   H     84.48000000    63.08000000    75.44000000
   H     85.59000000    65.57000000    74.24000000
   H     86.88000000    64.32000000    72.81000000
   H     85.22000000    64.39000000    72.33000000
   H     87.11000000    63.28000000    75.32000000
   H     87.61000000    64.88000000    75.14000000
   H     86.52000000    64.48000000    76.47000000
   H     85.81000000    62.32000000    71.86000000
   H     86.93000000    61.97000000    73.21000000
   H     85.19000000    61.90000000    73.51000000
   N     82.76000000    64.41000000    76.95000000
   C     82.12000000    63.12000000    76.79000000
   C     83.02000000    62.05000000    77.40000000
   O     83.47000000    61.18000000    76.66000000
   C     80.76000000    63.04000000    77.48000000
   C     80.68000000    63.56000000    78.91000000
   O     79.50000000    63.77000000    79.28000000
   O     81.64000000    63.72000000    79.70000000
   H     82.51000000    64.99000000    77.74000000
   H     81.85000000    62.95000000    75.75000000
   H     80.45000000    62.01000000    77.70000000
   H     80.07000000    63.65000000    76.91000000
   N     83.44000000    62.15000000    78.66000000
   C     84.37000000    61.24000000    79.31000000
   C     83.66000000    59.98000000    79.77000000
   O     82.53000000    60.12000000    80.24000000
   C     85.13000000    61.95000000    80.42000000
   C     84.38000000    62.50000000    81.61000000
   C     83.88000000    63.80000000    81.68000000
   C     84.22000000    61.72000000    82.76000000
   C     83.13000000    64.32000000    82.74000000
   C     83.45000000    62.17000000    83.84000000
   C     82.98000000    63.49000000    83.86000000
   H     83.14000000    62.94000000    79.21000000
   H     85.15000000    60.89000000    78.64000000
   H     85.72000000    62.70000000    79.89000000
   H     85.88000000    61.24000000    80.77000000
   H     84.10000000    64.43000000    80.83000000
   H     84.64000000    60.73000000    82.91000000
   H     82.72000000    65.31000000    82.64000000
   H     83.39000000    61.58000000    84.75000000
   H     82.37000000    63.78000000    84.70000000
   N     84.28000000    58.80000000    79.81000000
   C     85.58000000    58.33000000    79.37000000
   C     85.57000000    57.87000000    77.92000000
   O     84.61000000    58.08000000    77.18000000
   C     85.94000000    57.24000000    80.39000000
   C     84.64000000    56.56000000    80.79000000
   C     83.68000000    57.72000000    80.57000000
   H     86.30000000    59.15000000    79.39000000
   H     86.73000000    56.54000000    80.10000000
   H     86.31000000    57.67000000    81.32000000
   H     84.39000000    55.69000000    80.18000000
   H     84.57000000    56.23000000    81.83000000
   H     82.82000000    57.29000000    80.05000000
   H     83.31000000    58.05000000    81.54000000
   N     86.72000000    57.39000000    77.45000000
   C     86.90000000    56.93000000    76.09000000
   C     88.28000000    57.30000000    75.56000000
   O     88.75000000    56.54000000    74.71000000
   C     86.46000000    55.47000000    76.01000000
   C     86.99000000    54.60000000    77.15000000
   C     88.51000000    54.55000000    77.18000000
   O     89.08000000    53.69000000    76.48000000
   O     89.11000000    55.25000000    78.02000000
   H     87.50000000    57.27000000    78.09000000
   H     86.22000000    57.46000000    75.42000000
   H     86.80000000    55.19000000    75.01000000
   H     85.37000000    55.50000000    75.96000000
   H     86.64000000    53.59000000    76.94000000
   H     86.63000000    54.90000000    78.13000000
   N     88.97000000    58.41000000    75.83000000
   C     88.93000000    59.47000000    76.81000000
   H     87.96600000    59.97700000    76.75700000
   H     89.06400000    59.04900000    77.80700000
   H     89.72800000    60.18400000    76.60600000
   H     89.89000000    58.45000000    75.40000000
  Ca     83.51000000    58.11000000    64.43000000
   O     81.91000000    56.07000000    65.18000000
   H     81.88000000    56.30000000    66.11000000
   H     82.02000000    55.12000000    65.17000000
   O     83.29000000    58.46000000    67.10000000
   H     83.71000000    58.92000000    67.82000000
   H     82.65000000    57.88000000    67.53000000
   O     85.47000000    56.98000000    66.08000000
   H     85.94000000    56.19000000    66.31000000
   H     85.50000000    57.52000000    66.86000000
   O     84.22000000    55.65000000    63.42000000
   H     84.97000000    55.12000000    63.14000000
   H     83.58000000    55.55000000    62.72000000

Ca 1.00



