%chk=loop1.holoCaM.run99.water2.chk
%nprocshared=20
%mem=10GB
%nosave
#b3lyp/svp scf=(tight,noincore,xqc) Test 
#IOP(5/87=12) Density=Current Pop=(MK,readradii) iop(6/33=2) iop(6/42=6)

loop1.holoCaM.run99.water2 

   0  1 
   C     13.91000000    64.52000000    17.26000000
   C     12.55000000    64.35000000    16.61000000
   O     12.25000000    64.96000000    15.58000000
   H     14.59800000    64.97500000    16.54800000
   H     13.81700000    65.16300000    18.13500000
   H     14.29300000    63.54500000    17.56300000
   N     11.67000000    63.55000000    17.22000000
   C     10.24000000    63.48000000    17.00000000
   C      9.63000000    64.44000000    18.01000000
   O      9.95000000    64.24000000    19.18000000
   C      9.69000000    62.07000000    17.23000000
   C      8.18000000    61.97000000    17.12000000
   O      7.51000000    62.94000000    16.69000000
   O      7.69000000    60.87000000    17.46000000
   H     12.03000000    63.07000000    18.03000000
   H     10.02000000    63.85000000    16.00000000
   H      9.99000000    61.92000000    18.27000000
   H     10.08000000    61.36000000    16.51000000
   N      8.95000000    65.49000000    17.52000000
   C      8.47000000    66.64000000    18.26000000
   C      7.09000000    66.36000000    18.84000000
   O      6.58000000    66.96000000    19.78000000
   C      8.47000000    67.88000000    17.38000000
   C      9.83000000    68.21000000    16.77000000
   C     10.91000000    68.46000000    17.83000000
   C     12.35000000    68.64000000    17.36000000
   N     13.26000000    68.55000000    18.51000000
   H      8.90000000    65.57000000    16.52000000
   H      9.07000000    66.82000000    19.16000000
   H      8.33000000    68.82000000    17.90000000
   H      7.63000000    67.83000000    16.69000000
   H      9.75000000    69.06000000    16.09000000
   H     10.17000000    67.32000000    16.23000000
   H     11.00000000    67.56000000    18.43000000
   H     10.52000000    69.24000000    18.49000000
   H     12.49000000    69.58000000    16.84000000
   H     12.54000000    67.84000000    16.64000000
   H     13.04000000    67.78000000    19.12000000
   H     14.14000000    68.33000000    18.05000000
   H     13.32000000    69.37000000    19.09000000
   N      6.39000000    65.32000000    18.38000000
   C      4.98000000    65.02000000    18.60000000
   C      4.78000000    63.80000000    19.49000000
   O      3.67000000    63.69000000    20.01000000
   C      4.11000000    64.88000000    17.35000000
   C      4.45000000    65.75000000    16.15000000
   O      5.46000000    65.45000000    15.48000000
   O      3.68000000    66.68000000    15.85000000
   H      6.83000000    64.74000000    17.69000000
   H      4.58000000    65.78000000    19.26000000
   H      3.09000000    65.13000000    17.62000000
   H      4.09000000    63.81000000    17.11000000
   N      5.80000000    62.98000000    19.76000000
   C      5.59000000    61.68000000    20.37000000
   C      4.66000000    60.79000000    19.56000000
   O      4.05000000    59.92000000    20.18000000
   H      6.66000000    63.20000000    19.29000000
   H      5.22000000    61.86000000    21.37000000
   H      6.55000000    61.20000000    20.55000000
   N      4.49000000    60.88000000    18.24000000
   C      3.83000000    59.92000000    17.39000000
   C      4.66000000    58.67000000    17.13000000
   O      4.12000000    57.79000000    16.46000000
   C      3.36000000    60.52000000    16.07000000
   C      4.45000000    61.35000000    15.41000000
   O      4.11000000    62.50000000    15.06000000
   O      5.61000000    60.95000000    15.16000000
   H      5.13000000    61.52000000    17.77000000
   H      2.95000000    59.52000000    17.90000000
   H      2.55000000    61.21000000    16.34000000
   H      3.00000000    59.80000000    15.33000000
   N      5.94000000    58.66000000    17.51000000
   C      6.85000000    57.59000000    17.19000000
   C      7.53000000    57.64000000    15.83000000
   O      7.75000000    56.55000000    15.30000000
   H      6.26000000    59.54000000    17.90000000
   H      6.28000000    56.67000000    17.23000000
   H      7.54000000    57.35000000    18.00000000
   N      7.55000000    58.79000000    15.14000000
   C      7.92000000    58.92000000    13.75000000
   C      8.63000000    60.22000000    13.43000000
   O      8.30000000    61.30000000    13.91000000
   C      6.73000000    58.83000000    12.79000000
   C      6.60000000    57.41000000    12.24000000
   O      5.48000000    59.06000000    13.40000000
   H      7.20000000    59.61000000    15.61000000
   H      8.57000000    58.07000000    13.54000000
   H      6.74000000    59.55000000    11.98000000
   H      5.67000000    59.64000000    14.14000000
   H      6.58000000    56.68000000    13.05000000
   H      5.67000000    57.26000000    11.70000000
   H      7.45000000    57.18000000    11.60000000
   N      9.53000000    60.24000000    12.44000000
   C     10.24000000    61.42000000    11.97000000
   C      9.81000000    61.68000000    10.53000000
   O      9.88000000    60.83000000     9.65000000
   C     11.74000000    61.22000000    12.11000000
   C     12.25000000    61.14000000    13.55000000
   C     12.54000000    62.22000000    11.29000000
   C     13.76000000    60.99000000    13.69000000
   H      9.73000000    59.37000000    11.98000000
   H     10.08000000    62.36000000    12.50000000
   H     12.00000000    60.21000000    11.78000000
   H     11.85000000    60.26000000    14.05000000
   H     11.91000000    62.04000000    14.05000000
   H     12.26000000    63.21000000    11.65000000
   H     13.62000000    62.16000000    11.42000000
   H     12.29000000    62.05000000    10.24000000
   H     14.11000000    60.73000000    14.69000000
   H     14.02000000    60.23000000    12.94000000
   H     14.21000000    61.95000000    13.46000000
   N      9.38000000    62.92000000    10.30000000
   C      8.96000000    63.44000000     9.02000000
   C     10.15000000    64.00000000     8.26000000
   O     11.24000000    64.15000000     8.81000000
   C      7.87000000    64.50000000     9.08000000
   C      6.60000000    64.09000000     9.82000000
   O      8.41000000    65.63000000     9.73000000
   H      9.34000000    63.46000000    11.15000000
   H      8.67000000    62.62000000     8.35000000
   H      7.63000000    64.72000000     8.04000000
   H      7.79000000    66.06000000    10.32000000
   H      5.90000000    64.93000000     9.82000000
   H      6.22000000    63.23000000     9.27000000
   H      6.81000000    63.83000000    10.86000000
   N      9.93000000    64.46000000     7.02000000
   C     10.92000000    65.22000000     6.28000000
   C     11.36000000    66.49000000     6.99000000
   O     12.53000000    66.83000000     7.14000000
   C     10.39000000    65.71000000     4.94000000
   C     10.28000000    64.54000000     3.96000000
   O      9.16000000    66.36000000     5.15000000
   H      9.02000000    64.34000000     6.62000000
   H     11.75000000    64.53000000     6.11000000
   H     11.04000000    66.50000000     4.56000000
   H      9.32000000    67.11000000     4.58000000
   H      9.87000000    63.68000000     4.50000000
   H      9.57000000    64.76000000     3.16000000
   H     11.24000000    64.29000000     3.52000000
   N     10.36000000    67.16000000     7.57000000
   C     10.54000000    68.35000000     8.37000000
   C     11.24000000    68.11000000     9.70000000
   O     11.90000000    69.05000000    10.14000000
   C      9.17000000    68.93000000     8.71000000
   C      8.60000000    69.95000000     7.72000000
   C      8.29000000    69.27000000     6.39000000
   C      7.64000000    70.28000000     5.45000000
   N      7.40000000    69.68000000     4.12000000
   H      9.41000000    66.86000000     7.39000000
   H     11.08000000    69.05000000     7.73000000
   H      9.19000000    69.30000000     9.73000000
   H      8.51000000    68.06000000     8.72000000
   H      9.32000000    70.75000000     7.57000000
   H      7.73000000    70.48000000     8.11000000
   H      7.69000000    68.36000000     6.43000000
   H      9.25000000    68.97000000     5.98000000
   H      8.33000000    71.09000000     5.23000000
   H      6.68000000    70.61000000     5.84000000
   H      7.11000000    70.41000000     3.48000000
   H      8.20000000    69.20000000     3.74000000
   H      6.61000000    69.07000000     4.27000000
   N     11.25000000    66.88000000    10.24000000
   C     11.94000000    66.61000000    11.48000000
   C     13.36000000    66.14000000    11.16000000
   O     14.33000000    66.31000000    11.89000000
   C     11.18000000    65.61000000    12.35000000
   C     10.05000000    66.23000000    13.17000000
   C      8.94000000    65.25000000    13.55000000
   O      8.56000000    64.37000000    12.74000000
   O      8.48000000    65.22000000    14.71000000
   H     10.74000000    66.17000000     9.73000000
   H     12.07000000    67.46000000    12.15000000
   H     11.92000000    65.06000000    12.92000000
   H     10.79000000    64.87000000    11.65000000
   H      9.64000000    67.08000000    12.63000000
   H     10.49000000    66.65000000    14.07000000
   N     13.50000000    65.33000000    10.11000000
   C     14.78000000    64.85000000     9.62000000
   H     15.53800000    64.98800000    10.39100000
   H     14.70200000    63.79100000     9.37400000
   H     15.06200000    65.41100000     8.72900000
   H     12.68000000    64.96000000     9.66000000
  Ca      6.60000000    63.32000000    14.35000000
   O      5.07000000    64.79000000    12.73000000
   H      4.68000000    65.41000000    13.35000000
   H      5.47000000    65.34000000    12.06000000
   O      5.37000000    62.08000000    12.24000000
   H      4.66000000    61.51000000    12.55000000
   H      4.95000000    62.68000000    11.63000000

Ca 1.00



