%chk=loop3.apoCaM-CA-Ng.Init31.run96.water5.chk
%nprocshared=20
%mem=10GB
%nosave
#b3lyp/svp scf=(tight,noincore,xqc) Test 
#IOP(5/87=12) Density=Current Pop=(MK,readradii) iop(6/33=2) iop(6/42=6)

loop3.apoCaM-CA-Ng.Init31.run96.water5 

   0  1 
   C     51.82000000    64.48000000    31.25000000
   C     51.37000000    63.12000000    30.72000000
   O     51.23000000    62.15000000    31.46000000
   H     52.74300000    64.77600000    30.75100000
   H     51.04600000    65.22200000    31.05200000
   H     51.99400000    64.41300000    32.32400000
   N     51.28000000    63.08000000    29.39000000
   C     51.34000000    61.93000000    28.51000000
   C     52.74000000    61.33000000    28.38000000
   O     53.73000000    62.05000000    28.50000000
   C     50.69000000    62.30000000    27.18000000
   C     51.45000000    63.27000000    26.28000000
   O     51.73000000    62.82000000    25.15000000
   O     51.66000000    64.42000000    26.73000000
   H     51.40000000    63.97000000    28.92000000
   H     50.66000000    61.20000000    28.94000000
   H     49.72000000    62.74000000    27.42000000
   H     50.59000000    61.37000000    26.62000000
   N     52.75000000    60.09000000    27.90000000
   C     53.94000000    59.36000000    27.52000000
   C     54.96000000    59.15000000    28.63000000
   O     56.15000000    59.38000000    28.41000000
   C     53.51000000    58.07000000    26.82000000
   C     54.69000000    57.19000000    26.43000000
   C     54.48000000    56.07000000    25.42000000
   C     53.33000000    55.17000000    25.86000000
   N     53.18000000    54.12000000    24.84000000
   H     51.86000000    59.60000000    27.86000000
   H     54.47000000    59.98000000    26.79000000
   H     53.01000000    58.33000000    25.88000000
   H     52.84000000    57.55000000    27.50000000
   H     54.95000000    56.56000000    27.27000000
   H     55.48000000    57.84000000    26.04000000
   H     55.45000000    55.62000000    25.20000000
   H     54.19000000    56.47000000    24.45000000
   H     52.44000000    55.79000000    25.85000000
   H     53.46000000    54.66000000    26.82000000
   H     53.65000000    54.33000000    23.97000000
   H     53.57000000    53.28000000    25.23000000
   H     52.20000000    54.10000000    24.58000000
   N     54.54000000    58.58000000    29.76000000
   C     55.41000000    58.15000000    30.84000000
   C     55.92000000    56.74000000    30.61000000
   O     55.83000000    55.92000000    31.52000000
   C     54.72000000    58.33000000    32.19000000
   C     53.46000000    57.52000000    32.45000000
   O     52.73000000    57.91000000    33.39000000
   O     52.93000000    56.67000000    31.70000000
   H     53.60000000    58.23000000    29.74000000
   H     56.29000000    58.79000000    30.80000000
   H     54.34000000    59.34000000    32.34000000
   H     55.47000000    58.17000000    32.96000000
   N     56.43000000    56.45000000    29.41000000
   C     57.13000000    55.24000000    29.04000000
   C     56.23000000    54.04000000    28.77000000
   O     55.01000000    54.08000000    28.78000000
   H     56.48000000    57.25000000    28.79000000
   H     57.82000000    55.06000000    29.87000000
   H     57.63000000    55.49000000    28.11000000
   N     56.85000000    52.94000000    28.33000000
   C     58.26000000    52.69000000    28.10000000
   C     58.79000000    51.47000000    28.84000000
   O     57.92000000    50.64000000    29.08000000
   C     58.45000000    52.44000000    26.61000000
   C     58.15000000    53.59000000    25.66000000
   N     57.68000000    53.30000000    24.45000000
   O     58.46000000    54.74000000    25.97000000
   H     56.38000000    52.04000000    28.35000000
   H     58.84000000    53.60000000    28.27000000
   H     57.85000000    51.59000000    26.28000000
   H     59.47000000    52.07000000    26.52000000
   H     57.75000000    52.35000000    24.11000000
   H     57.40000000    54.07000000    23.86000000
   N     60.03000000    51.36000000    29.31000000
   C     61.06000000    52.33000000    28.98000000
   C     61.11000000    53.53000000    29.92000000
   O     60.17000000    54.31000000    29.90000000
   H     60.20000000    50.61000000    29.96000000
   H     60.94000000    52.74000000    27.97000000
   H     62.03000000    51.83000000    28.98000000
   N     62.10000000    53.54000000    30.82000000
   C     62.20000000    54.45000000    31.94000000
   C     63.62000000    54.96000000    32.15000000
   O     64.39000000    54.61000000    33.04000000
   C     61.61000000    53.94000000    33.26000000
   C     60.27000000    53.29000000    33.02000000
   C     59.09000000    54.02000000    32.89000000
   C     60.28000000    51.91000000    32.74000000
   C     57.88000000    53.36000000    32.66000000
   C     59.10000000    51.25000000    32.37000000
   C     57.90000000    51.99000000    32.33000000
   O     56.81000000    51.34000000    31.83000000
   H     62.63000000    52.68000000    30.85000000
   H     61.52000000    55.23000000    31.60000000
   H     61.59000000    54.73000000    34.01000000
   H     62.18000000    53.11000000    33.67000000
   H     59.08000000    55.09000000    33.04000000
   H     61.23000000    51.42000000    32.63000000
   H     56.98000000    53.93000000    32.50000000
   H     59.18000000    50.21000000    32.07000000
   H     56.99000000    50.42000000    31.63000000
   N     64.12000000    55.62000000    31.11000000
   C     65.49000000    56.02000000    30.82000000
   C     65.91000000    57.42000000    31.22000000
   O     67.10000000    57.65000000    31.42000000
   C     65.84000000    55.73000000    29.36000000
   C     65.47000000    54.32000000    28.93000000
   C     65.29000000    56.75000000    28.36000000
   C     66.17000000    53.79000000    27.68000000
   H     63.41000000    55.97000000    30.48000000
   H     66.15000000    55.35000000    31.37000000
   H     66.91000000    55.89000000    29.26000000
   H     64.41000000    54.14000000    28.77000000
   H     65.72000000    53.66000000    29.76000000
   H     66.05000000    57.50000000    28.12000000
   H     65.08000000    56.20000000    27.44000000
   H     64.34000000    57.19000000    28.66000000
   H     67.25000000    53.94000000    27.67000000
   H     66.06000000    52.71000000    27.66000000
   H     65.66000000    54.17000000    26.80000000
   N     65.00000000    58.40000000    31.18000000
   C     65.41000000    59.76000000    30.93000000
   C     64.62000000    60.49000000    29.85000000
   O     65.01000000    61.53000000    29.32000000
   C     65.30000000    60.64000000    32.17000000
   O     63.99000000    60.66000000    32.69000000
   H     64.10000000    58.04000000    30.87000000
   H     66.45000000    59.81000000    30.60000000
   H     65.58000000    61.67000000    31.98000000
   H     65.85000000    60.26000000    33.03000000
   H     63.47000000    59.88000000    32.48000000
   N     63.49000000    59.89000000    29.46000000
   C     62.64000000    60.63000000    28.54000000
   C     61.63000000    61.58000000    29.17000000
   O     60.49000000    61.67000000    28.74000000
   C     62.00000000    59.67000000    27.54000000
   H     63.24000000    58.98000000    29.81000000
   H     63.27000000    61.24000000    27.90000000
   H     62.73000000    58.97000000    27.13000000
   H     61.14000000    59.19000000    27.99000000
   H     61.87000000    60.31000000    26.66000000
   N     61.99000000    62.26000000    30.26000000
   C     61.10000000    62.96000000    31.17000000
   C     60.04000000    62.07000000    31.81000000
   O     59.18000000    62.55000000    32.54000000
   C     60.62000000    64.30000000    30.64000000
   H     62.91000000    62.00000000    30.59000000
   H     61.74000000    63.09000000    32.04000000
   H     60.00000000    64.80000000    31.39000000
   H     61.43000000    64.96000000    30.31000000
   H     60.13000000    64.21000000    29.66000000
   N     60.15000000    60.75000000    31.62000000
   C     59.25000000    59.89000000    32.36000000
   C     59.57000000    59.63000000    33.82000000
   O     58.66000000    59.49000000    34.64000000
   C     59.16000000    58.61000000    31.53000000
   C     60.28000000    57.58000000    31.64000000
   C     61.60000000    58.03000000    31.05000000
   O     62.22000000    58.89000000    31.72000000
   O     62.19000000    57.40000000    30.14000000
   H     61.00000000    60.32000000    31.29000000
   H     58.22000000    60.25000000    32.31000000
   H     59.08000000    58.88000000    30.48000000
   H     58.25000000    58.16000000    31.93000000
   H     59.92000000    56.73000000    31.05000000
   H     60.35000000    57.31000000    32.69000000
   N     60.85000000    59.61000000    34.19000000
   C     61.34000000    59.48000000    35.55000000
   H     62.21600000    60.11500000    35.68200000
   H     60.56100000    59.78700000    36.24800000
   H     61.61200000    58.44200000    35.74100000
   H     61.51000000    59.73000000    33.43000000
  Ca     50.59000000    56.35000000    32.96000000
   O     51.64000000    53.98000000    32.14000000
   H     51.12000000    53.20000000    31.97000000
   H     52.54000000    53.67000000    32.15000000
   O     49.43000000    55.50000000    30.63000000
   H     49.79000000    54.85000000    30.03000000
   H     48.53000000    55.63000000    30.33000000
   O     50.05000000    58.62000000    31.52000000
   H     49.12000000    58.78000000    31.67000000
   H     50.20000000    58.89000000    30.61000000
   O     48.78000000    54.33000000    33.47000000
   H     48.28000000    53.68000000    32.98000000
   H     48.27000000    54.47000000    34.27000000
   O     51.26000000    55.61000000    35.44000000
   H     51.94000000    56.22000000    35.70000000
   H     51.08000000    55.10000000    36.23000000

Ca 1.00



