%chk=loop1.apoCaM-CA-Ng.Init31.run32.water4.chk
%nprocshared=20
%mem=10GB
%nosave
#b3lyp/svp scf=(tight,noincore,xqc) Test 
#IOP(5/87=12) Density=Current Pop=(MK,readradii) iop(6/33=2) iop(6/42=6)

loop1.apoCaM-CA-Ng.Init31.run32.water4 

   0  1 
   C     77.22000000    65.06000000    86.49000000
   C     77.47000000    66.00000000    85.32000000
   O     77.53000000    67.22000000    85.46000000
   H     76.19000000    64.70500000    86.45600000
   H     77.89900000    64.21000000    86.42500000
   H     77.39000000    65.59100000    87.42600000
   N     77.61000000    65.42000000    84.12000000
   C     78.07000000    66.01000000    82.88000000
   C     76.99000000    65.58000000    81.90000000
   O     76.12000000    64.73000000    82.06000000
   C     79.47000000    65.57000000    82.45000000
   C     79.98000000    66.32000000    81.23000000
   O     79.34000000    67.31000000    80.82000000
   O     81.10000000    66.06000000    80.74000000
   H     77.26000000    64.48000000    84.10000000
   H     77.98000000    67.09000000    82.95000000
   H     79.43000000    64.52000000    82.14000000
   H     80.13000000    65.85000000    83.28000000
   N     76.76000000    66.40000000    80.86000000
   C     75.61000000    66.42000000    79.98000000
   C     75.49000000    65.16000000    79.15000000
   O     74.37000000    64.67000000    79.00000000
   C     75.57000000    67.70000000    79.15000000
   C     74.47000000    67.65000000    78.09000000
   C     73.11000000    67.99000000    78.70000000
   C     72.05000000    68.20000000    77.62000000
   N     70.73000000    68.55000000    78.19000000
   H     77.46000000    67.12000000    80.74000000
   H     74.73000000    66.36000000    80.62000000
   H     76.52000000    67.89000000    78.65000000
   H     75.34000000    68.51000000    79.83000000
   H     74.45000000    66.75000000    77.49000000
   H     74.60000000    68.55000000    77.49000000
   H     73.26000000    68.85000000    79.36000000
   H     72.70000000    67.13000000    79.23000000
   H     71.84000000    67.26000000    77.11000000
   H     72.33000000    68.97000000    76.90000000
   H     70.14000000    68.91000000    77.46000000
   H     70.24000000    67.71000000    78.46000000
   H     70.83000000    69.22000000    78.93000000
   N     76.53000000    64.64000000    78.49000000
   C     77.88000000    65.13000000    78.25000000
   C     78.81000000    63.93000000    78.37000000
   O     78.38000000    62.88000000    77.91000000
   C     77.96000000    65.82000000    76.89000000
   C     79.42000000    66.17000000    76.65000000
   O     80.04000000    65.54000000    75.77000000
   O     79.97000000    67.00000000    77.42000000
   H     76.28000000    63.81000000    77.98000000
   H     78.22000000    65.87000000    78.97000000
   H     77.27000000    66.66000000    76.78000000
   H     77.72000000    65.02000000    76.19000000
   N     79.99000000    64.03000000    78.98000000
   C     80.91000000    62.91000000    78.97000000
   C     82.11000000    63.30000000    79.82000000
   O     82.14000000    63.01000000    81.01000000
   H     80.28000000    64.94000000    79.33000000
   H     81.23000000    62.64000000    77.96000000
   H     80.49000000    62.04000000    79.48000000
   N     83.14000000    63.81000000    79.13000000
   C     84.39000000    64.24000000    79.71000000
   C     85.48000000    63.18000000    79.71000000
   O     85.50000000    62.34000000    78.81000000
   C     84.97000000    65.50000000    79.07000000
   C     83.94000000    66.60000000    78.83000000
   O     83.97000000    67.63000000    79.53000000
   O     83.07000000    66.53000000    77.93000000
   H     83.03000000    63.85000000    78.13000000
   H     84.23000000    64.55000000    80.74000000
   H     85.42000000    65.16000000    78.13000000
   H     85.69000000    65.91000000    79.78000000
   N     86.46000000    63.17000000    80.62000000
   C     86.61000000    63.99000000    81.81000000
   C     87.48000000    65.22000000    81.62000000
   O     87.38000000    66.11000000    82.45000000
   H     87.17000000    62.46000000    80.50000000
   H     87.11000000    63.30000000    82.49000000
   H     85.70000000    64.30000000    82.33000000
   N     88.23000000    65.31000000    80.52000000
   C     89.34000000    66.24000000    80.36000000
   C     90.49000000    65.94000000    81.30000000
   O     90.96000000    66.82000000    82.02000000
   C     88.99000000    67.73000000    80.35000000
   C     87.69000000    68.12000000    79.66000000
   O     90.09000000    68.49000000    79.89000000
   H     88.22000000    64.57000000    79.84000000
   H     89.68000000    65.95000000    79.36000000
   H     88.86000000    67.96000000    81.40000000
   H     90.66000000    68.57000000    80.66000000
   H     87.55000000    69.18000000    79.91000000
   H     87.79000000    68.00000000    78.58000000
   H     86.78000000    67.64000000    80.02000000
   N     90.97000000    64.70000000    81.34000000
   C     92.20000000    64.14000000    81.88000000
   C     93.47000000    64.86000000    81.44000000
   O     94.30000000    64.26000000    80.76000000
   C     92.14000000    63.97000000    83.39000000
   C     91.02000000    63.00000000    83.75000000
   C     93.47000000    63.39000000    83.84000000
   C     90.73000000    62.65000000    85.21000000
   H     90.49000000    64.06000000    80.73000000
   H     92.31000000    63.17000000    81.40000000
   H     92.02000000    64.88000000    83.98000000
   H     91.29000000    62.10000000    83.20000000
   H     90.05000000    63.33000000    83.38000000
   H     94.25000000    64.14000000    83.79000000
   H     93.44000000    62.97000000    84.85000000
   H     93.85000000    62.70000000    83.08000000
   H     89.93000000    61.92000000    85.30000000
   H     91.62000000    62.48000000    85.82000000
   H     90.25000000    63.54000000    85.61000000
   N     93.63000000    66.14000000    81.78000000
   C     94.82000000    66.97000000    81.65000000
   C     95.09000000    67.74000000    82.94000000
   O     94.23000000    68.22000000    83.67000000
   C     94.90000000    67.89000000    80.44000000
   C     94.06000000    69.16000000    80.52000000
   O     94.50000000    67.15000000    79.30000000
   H     92.85000000    66.73000000    82.01000000
   H     95.69000000    66.31000000    81.67000000
   H     95.92000000    68.22000000    80.26000000
   H     95.12000000    66.46000000    79.06000000
   H     94.45000000    69.76000000    79.70000000
   H     93.02000000    68.90000000    80.36000000
   H     94.25000000    69.62000000    81.49000000
   N     96.37000000    68.02000000    83.17000000
   C     96.82000000    68.94000000    84.20000000
   C     96.32000000    70.35000000    83.90000000
   O     96.27000000    70.75000000    82.74000000
   C     98.34000000    68.93000000    84.33000000
   C     99.05000000    69.81000000    85.36000000
   O     98.74000000    67.60000000    84.53000000
   H     97.07000000    67.72000000    82.50000000
   H     96.41000000    68.46000000    85.08000000
   H     98.81000000    69.32000000    83.42000000
   H     99.56000000    67.40000000    84.07000000
   H     98.45000000    69.73000000    86.27000000
   H    100.05000000    69.45000000    85.56000000
   H     99.17000000    70.85000000    85.05000000
   N     95.89000000    71.08000000    84.93000000
   C     95.22000000    72.36000000    84.81000000
   C     94.00000000    72.38000000    83.90000000
   O     93.96000000    73.13000000    82.92000000
   C     96.28000000    73.45000000    84.62000000
   C     97.05000000    73.80000000    85.89000000
   C     98.11000000    74.88000000    85.67000000
   C     99.05000000    75.22000000    86.83000000
   N    100.33000000    75.73000000    86.33000000
   H     96.03000000    70.67000000    85.84000000
   H     94.75000000    72.57000000    85.77000000
   H     95.78000000    74.39000000    84.37000000
   H     97.02000000    73.18000000    83.87000000
   H     97.58000000    72.89000000    86.17000000
   H     96.46000000    74.16000000    86.73000000
   H     97.63000000    75.75000000    85.22000000
   H     98.83000000    74.50000000    84.94000000
   H     99.18000000    74.38000000    87.51000000
   H     98.55000000    76.00000000    87.40000000
   H    101.06000000    76.00000000    86.98000000
   H    100.81000000    74.98000000    85.86000000
   H    100.17000000    76.37000000    85.57000000
   N     93.01000000    71.57000000    84.26000000
   C     91.72000000    71.57000000    83.60000000
   C     91.14000000    70.20000000    83.26000000
   O     90.88000000    70.01000000    82.07000000
   C     90.74000000    72.44000000    84.38000000
   C     89.28000000    72.36000000    83.92000000
   C     88.34000000    73.30000000    84.65000000
   O     88.63000000    74.51000000    84.55000000
   O     87.31000000    72.87000000    85.21000000
   H     93.25000000    70.86000000    84.93000000
   H     91.88000000    72.11000000    82.67000000
   H     91.04000000    73.49000000    84.38000000
   H     90.72000000    72.05000000    85.39000000
   H     89.04000000    71.31000000    84.12000000
   H     89.23000000    72.59000000    82.86000000
   N     91.17000000    69.22000000    84.17000000
   C     91.65000000    69.00000000    85.52000000
   H     92.52500000    69.62400000    85.70000000
   H     90.86600000    69.26000000    86.23200000
   H     91.92100000    67.95100000    85.64400000
   H     90.68000000    68.44000000    83.76000000
  Ca     81.35000000    68.19000000    79.22000000
   O     82.28000000    70.70000000    79.38000000
   H     81.82000000    71.53000000    79.53000000
   H     82.64000000    70.78000000    78.49000000
   O     79.35000000    70.14000000    79.30000000
   H     78.47000000    70.16000000    78.94000000
   H     79.45000000    70.98000000    79.74000000
   O     81.49000000    69.28000000    81.80000000
   H     82.08000000    70.03000000    81.77000000
   H     81.05000000    69.36000000    82.64000000
   O     82.12000000    69.39000000    76.82000000
   H     81.67000000    70.13000000    76.41000000
   H     82.53000000    68.93000000    76.10000000

Ca 1.00



