%chk=loop4.apoCaM-CA-Ng.Init31.run77.water3.chk
%nprocshared=20
%mem=10GB
%nosave
#b3lyp/svp scf=(tight,noincore,xqc) Test 
#IOP(5/87=12) Density=Current Pop=(MK,readradii) iop(6/33=2) iop(6/42=6)

loop4.apoCaM-CA-Ng.Init31.run77.water3 

   -3  1 
   C     96.15000000    31.91000000    36.30000000
   C     96.41000000    32.66000000    35.00000000
   O     95.72000000    33.64000000    34.73000000
   H     95.11400000    31.57200000    36.32300000
   H     96.81400000    31.04800000    36.36200000
   H     96.33400000    32.57300000    37.14600000
   N     97.46000000    32.39000000    34.22000000
   C     98.71000000    31.68000000    34.39000000
   C     99.84000000    32.55000000    34.90000000
   O    100.80000000    32.12000000    35.55000000
   C     99.10000000    31.04000000    33.06000000
   C    100.50000000    30.44000000    33.01000000
   O    101.41000000    30.97000000    32.33000000
   O    100.65000000    29.39000000    33.67000000
   H     97.52000000    33.07000000    33.48000000
   H     98.65000000    30.87000000    35.12000000
   H     99.03000000    31.75000000    32.24000000
   H     98.30000000    30.34000000    32.84000000
   N     99.80000000    33.85000000    34.60000000
   C    100.35000000    34.93000000    35.40000000
   C    101.30000000    35.87000000    34.66000000
   O    102.23000000    36.41000000    35.24000000
   C     99.18000000    35.65000000    36.04000000
   C     99.66000000    36.28000000    37.35000000
   C     98.47000000    36.52000000    35.01000000
   C     98.60000000    37.01000000    38.17000000
   H     99.05000000    34.14000000    33.98000000
   H    100.84000000    34.53000000    36.28000000
   H     98.44000000    34.89000000    36.26000000
   H    100.42000000    37.01000000    37.07000000
   H    100.03000000    35.55000000    38.06000000
   H     98.31000000    36.08000000    34.03000000
   H     97.51000000    36.95000000    35.28000000
   H     99.08000000    37.42000000    34.87000000
   H     99.05000000    37.51000000    39.03000000
   H     98.09000000    37.72000000    37.53000000
   H     97.82000000    36.29000000    38.43000000
   N    101.04000000    36.05000000    33.36000000
   C    101.83000000    36.95000000    32.54000000
   C    103.03000000    36.41000000    31.77000000
   O    103.99000000    37.15000000    31.55000000
   C    100.88000000    37.61000000    31.55000000
   C    101.21000000    39.02000000    31.09000000
   O    101.73000000    39.15000000    29.97000000
   O    101.14000000    40.02000000    31.84000000
   H    100.23000000    35.62000000    32.94000000
   H    102.21000000    37.74000000    33.20000000
   H     99.90000000    37.68000000    32.01000000
   H    100.72000000    36.99000000    30.66000000
   N    102.96000000    35.12000000    31.46000000
   C    103.92000000    34.54000000    30.55000000
   C    103.49000000    34.57000000    29.09000000
   O    102.33000000    34.88000000    28.80000000
   H    102.12000000    34.65000000    31.78000000
   H    104.29000000    33.56000000    30.88000000
   H    104.88000000    35.03000000    30.68000000
   N    104.49000000    34.34000000    28.24000000
   C    104.36000000    34.43000000    26.80000000
   C    105.00000000    35.72000000    26.33000000
   O    105.94000000    36.25000000    26.93000000
   C    104.97000000    33.24000000    26.06000000
   C    106.46000000    33.12000000    26.32000000
   O    106.91000000    32.34000000    27.18000000
   O    107.29000000    33.66000000    25.55000000
   H    105.39000000    34.11000000    28.63000000
   H    103.31000000    34.38000000    26.51000000
   H    104.75000000    33.26000000    25.00000000
   H    104.43000000    32.35000000    26.38000000
   N    104.63000000    36.25000000    25.16000000
   C    103.54000000    35.85000000    24.29000000
   C    103.73000000    36.50000000    22.93000000
   O    104.08000000    37.68000000    22.93000000
   H    105.05000000    37.15000000    24.97000000
   H    102.55000000    36.19000000    24.60000000
   H    103.49000000    34.76000000    24.32000000
   N    103.63000000    35.84000000    21.77000000
   C    103.30000000    34.47000000    21.42000000
   C    102.06000000    33.94000000    22.14000000
   O    101.25000000    34.65000000    22.73000000
   C    104.54000000    33.63000000    21.72000000
   C    105.78000000    34.01000000    20.92000000
   C    105.65000000    33.70000000    19.43000000
   N    106.76000000    33.78000000    18.69000000
   O    104.62000000    33.27000000    18.92000000
   H    103.75000000    36.38000000    20.93000000
   H    103.05000000    34.45000000    20.36000000
   H    104.35000000    32.58000000    21.50000000
   H    104.79000000    33.64000000    22.78000000
   H    106.67000000    33.48000000    21.25000000
   H    106.06000000    35.06000000    21.05000000
   H    107.59000000    34.03000000    19.20000000
   H    106.79000000    33.43000000    17.75000000
   N    101.85000000    32.63000000    22.04000000
   C    100.72000000    31.88000000    22.56000000
   C    100.06000000    31.04000000    21.48000000
   O    100.72000000    30.40000000    20.66000000
   C    101.14000000    31.08000000    23.80000000
   C    101.12000000    31.86000000    25.11000000
   C    102.45000000    30.33000000    23.61000000
   H    102.63000000    32.13000000    21.64000000
   H     99.92000000    32.59000000    22.77000000
   H    100.33000000    30.36000000    23.94000000
   H    100.08000000    32.06000000    25.36000000
   H    101.66000000    31.34000000    25.90000000
   H    101.65000000    32.79000000    24.89000000
   H    102.36000000    29.49000000    24.30000000
   H    102.45000000    29.94000000    22.59000000
   H    103.23000000    31.10000000    23.61000000
   N     98.75000000    30.82000000    21.62000000
   C     97.97000000    29.94000000    20.78000000
   C     97.99000000    28.49000000    21.25000000
   O     97.31000000    27.64000000    20.67000000
   C     96.55000000    30.43000000    20.55000000
   C     96.48000000    31.81000000    19.90000000
   N     96.81000000    31.85000000    18.61000000
   O     96.29000000    32.82000000    20.57000000
   H     98.27000000    31.22000000    22.42000000
   H     98.40000000    29.90000000    19.78000000
   H     95.98000000    30.54000000    21.47000000
   H     96.05000000    29.76000000    19.84000000
   H     97.07000000    31.03000000    18.09000000
   H     96.65000000    32.65000000    18.01000000
   N     98.79000000    28.21000000    22.28000000
   C     98.83000000    26.89000000    22.87000000
   C     99.01000000    26.91000000    24.38000000
   O     99.36000000    27.94000000    24.94000000
   C     99.93000000    26.05000000    22.24000000
   C    101.32000000    26.65000000    22.24000000
   C    102.19000000    26.40000000    23.30000000
   C    101.76000000    27.34000000    21.11000000
   C    103.54000000    26.73000000    23.14000000
   C    103.09000000    27.76000000    20.99000000
   C    104.01000000    27.40000000    21.99000000
   O    105.30000000    27.81000000    21.83000000
   H     99.49000000    28.88000000    22.58000000
   H     97.93000000    26.31000000    22.66000000
   H     99.58000000    25.72000000    21.26000000
   H     99.87000000    25.16000000    22.88000000
   H    101.93000000    25.92000000    24.23000000
   H    101.17000000    27.54000000    20.23000000
   H    104.22000000    26.57000000    23.96000000
   H    103.50000000    28.40000000    20.22000000
   H    105.93000000    27.72000000    22.56000000
   N     98.79000000    25.81000000    25.10000000
   C     99.17000000    25.73000000    26.49000000
   C     98.14000000    26.46000000    27.34000000
   O     96.92000000    26.40000000    27.18000000
   C     99.38000000    24.27000000    26.90000000
   C    100.70000000    23.64000000    26.45000000
   C    101.94000000    24.02000000    27.24000000
   O    102.43000000    25.16000000    27.32000000
   O    102.38000000    23.06000000    27.92000000
   H     98.51000000    24.94000000    24.67000000
   H    100.08000000    26.26000000    26.77000000
   H     98.53000000    23.72000000    26.51000000
   H     99.19000000    24.23000000    27.97000000
   H    100.89000000    23.76000000    25.38000000
   H    100.47000000    22.58000000    26.56000000
   N     98.60000000    27.20000000    28.35000000
   C     97.80000000    28.06000000    29.20000000
   C     97.58000000    29.44000000    28.58000000
   O     97.82000000    30.47000000    29.20000000
   C     98.43000000    28.11000000    30.59000000
   C     98.26000000    26.72000000    31.20000000
   C     98.93000000    26.79000000    32.56000000
   O     98.22000000    27.05000000    33.55000000
   O    100.16000000    26.63000000    32.71000000
   H     99.60000000    27.15000000    28.46000000
   H     96.77000000    27.73000000    29.27000000
   H     97.93000000    28.85000000    31.23000000
   H     99.47000000    28.42000000    30.59000000
   H     98.81000000    25.94000000    30.66000000
   H     97.22000000    26.40000000    31.27000000
   N     97.26000000    29.39000000    27.29000000
   C     96.76000000    30.56000000    26.59000000
   H     95.84200000    30.90300000    27.06700000
   H     97.50700000    31.35300000    26.62800000
   H     96.55500000    30.30200000    25.55100000
   H     97.16000000    28.48000000    26.87000000
  Ca    100.34300000    27.47000000    35.23000000
   O    102.68300000    26.44000000    35.58000000
   H    103.23300000    26.74000000    36.30000000
   H    103.21300000    25.75000000    35.16000000
   O    102.04300000    29.31000000    36.50000000
   H    101.76300000    30.21000000    36.34000000
   H    102.97300000    29.37000000    36.69000000
   O     99.19000000    25.12000000    36.16000000
   H     99.47000000    24.55000000    36.87000000
   H     98.74000000    24.53000000    35.54000000

Ca 1.00



