%chk=loop1.holoCaM.run74.water2.chk
%nprocshared=20
%mem=10GB
%nosave
#b3lyp/svp scf=(tight,noincore,xqc) Test 
#IOP(5/87=12) Density=Current Pop=(MK,readradii) iop(6/33=2) iop(6/42=6)

loop1.holoCaM.run74.water2 

   0  1 
   C     41.81000000    60.87000000    10.67000000
   C     40.95000000    59.90000000    11.47000000
   O     40.21000000    59.09000000    10.92000000
   H     42.77800000    60.41300000    10.46600000
   H     41.31400000    61.10500000     9.72800000
   H     41.95500000    61.78600000    11.24300000
   N     40.88000000    60.16000000    12.78000000
   C     39.94000000    59.65000000    13.75000000
   C     38.53000000    60.19000000    13.57000000
   O     38.19000000    61.20000000    14.18000000
   C     40.48000000    59.93000000    15.15000000
   C     39.59000000    59.27000000    16.20000000
   O     39.74000000    59.53000000    17.42000000
   O     38.70000000    58.45000000    15.89000000
   H     41.64000000    60.64000000    13.24000000
   H     39.98000000    58.57000000    13.63000000
   H     40.61000000    60.99000000    15.32000000
   H     41.42000000    59.37000000    15.16000000
   N     37.79000000    59.59000000    12.64000000
   C     36.50000000    60.10000000    12.22000000
   C     35.42000000    60.34000000    13.27000000
   O     34.57000000    61.21000000    13.12000000
   C     36.06000000    59.10000000    11.16000000
   C     35.00000000    59.53000000    10.15000000
   C     34.47000000    58.47000000     9.19000000
   C     33.27000000    58.99000000     8.42000000
   N     32.10000000    59.21000000     9.28000000
   H     38.11000000    58.67000000    12.35000000
   H     36.56000000    61.07000000    11.74000000
   H     35.65000000    58.18000000    11.58000000
   H     36.95000000    58.84000000    10.58000000
   H     35.44000000    60.41000000     9.67000000
   H     34.17000000    59.82000000    10.79000000
   H     34.25000000    57.48000000     9.60000000
   H     35.34000000    58.31000000     8.55000000
   H     33.11000000    58.15000000     7.74000000
   H     33.55000000    59.90000000     7.90000000
   H     32.21000000    60.07000000     9.80000000
   H     31.25000000    59.31000000     8.74000000
   H     31.97000000    58.54000000    10.03000000
   N     35.39000000    59.45000000    14.26000000
   C     34.51000000    59.38000000    15.42000000
   C     35.20000000    59.80000000    16.70000000
   O     34.52000000    59.82000000    17.73000000
   C     33.84000000    58.01000000    15.51000000
   C     34.73000000    56.79000000    15.33000000
   O     34.15000000    55.70000000    15.09000000
   O     35.97000000    56.91000000    15.42000000
   H     36.05000000    58.69000000    14.23000000
   H     33.78000000    60.18000000    15.25000000
   H     33.06000000    58.10000000    14.75000000
   H     33.30000000    57.94000000    16.45000000
   N     36.47000000    60.24000000    16.72000000
   C     37.01000000    60.95000000    17.86000000
   C     37.11000000    60.14000000    19.15000000
   O     36.96000000    60.70000000    20.23000000
   H     37.07000000    60.19000000    15.91000000
   H     36.56000000    61.94000000    17.90000000
   H     38.03000000    61.16000000    17.53000000
   N     37.29000000    58.83000000    18.95000000
   C     37.50000000    57.93000000    20.07000000
   C     38.90000000    57.97000000    20.66000000
   O     39.12000000    57.44000000    21.74000000
   C     37.02000000    56.51000000    19.76000000
   C     37.66000000    55.90000000    18.52000000
   O     36.99000000    55.26000000    17.69000000
   O     38.91000000    55.95000000    18.47000000
   H     37.62000000    58.47000000    18.07000000
   H     36.85000000    58.25000000    20.88000000
   H     35.94000000    56.64000000    19.67000000
   H     37.12000000    55.78000000    20.56000000
   N     39.89000000    58.58000000    20.00000000
   C     41.29000000    58.67000000    20.35000000
   C     42.07000000    57.48000000    19.80000000
   O     43.14000000    57.11000000    20.27000000
   H     39.62000000    58.99000000    19.12000000
   H     41.36000000    58.70000000    21.44000000
   H     41.63000000    59.61000000    19.93000000
   N     41.61000000    56.78000000    18.76000000
   C     42.28000000    55.70000000    18.07000000
   C     41.99000000    55.69000000    16.58000000
   O     40.90000000    56.04000000    16.12000000
   C     42.07000000    54.32000000    18.70000000
   C     42.69000000    54.23000000    20.09000000
   O     40.73000000    53.89000000    18.82000000
   H     40.67000000    56.97000000    18.45000000
   H     43.33000000    55.93000000    18.26000000
   H     42.62000000    53.68000000    18.02000000
   H     40.24000000    54.72000000    18.80000000
   H     42.78000000    53.21000000    20.46000000
   H     43.73000000    54.56000000    19.98000000
   H     42.13000000    54.84000000    20.81000000
   N     42.96000000    55.13000000    15.85000000
   C     42.86000000    54.89000000    14.42000000
   C     42.65000000    53.41000000    14.16000000
   O     43.37000000    52.59000000    14.72000000
   C     44.04000000    55.56000000    13.72000000
   C     43.87000000    57.07000000    13.59000000
   C     44.32000000    54.85000000    12.40000000
   C     45.10000000    57.78000000    13.03000000
   H     43.87000000    55.01000000    16.27000000
   H     41.96000000    55.43000000    14.13000000
   H     44.91000000    55.33000000    14.33000000
   H     43.75000000    57.54000000    14.57000000
   H     43.07000000    57.22000000    12.86000000
   H     44.64000000    53.81000000    12.51000000
   H     43.44000000    54.84000000    11.75000000
   H     45.16000000    55.30000000    11.87000000
   H     45.02000000    58.84000000    13.24000000
   H     46.04000000    57.43000000    13.48000000
   H     45.23000000    57.55000000    11.97000000
   N     41.61000000    52.96000000    13.44000000
   C     41.37000000    51.64000000    12.90000000
   C     41.83000000    51.50000000    11.45000000
   O     42.35000000    52.44000000    10.86000000
   C     39.92000000    51.23000000    13.13000000
   C     39.03000000    52.06000000    12.21000000
   O     39.65000000    49.89000000    12.80000000
   H     40.92000000    53.67000000    13.25000000
   H     41.94000000    50.92000000    13.49000000
   H     39.66000000    51.44000000    14.17000000
   H     39.48000000    49.48000000    13.65000000
   H     37.97000000    51.78000000    12.28000000
   H     39.12000000    53.09000000    12.55000000
   H     39.22000000    51.92000000    11.15000000
   N     41.68000000    50.35000000    10.79000000
   C     42.22000000    50.06000000     9.48000000
   C     41.81000000    50.99000000     8.34000000
   O     42.55000000    51.39000000     7.45000000
   C     41.91000000    48.61000000     9.12000000
   C     42.56000000    47.49000000     9.92000000
   O     40.51000000    48.42000000     9.11000000
   H     41.30000000    49.57000000    11.31000000
   H     43.30000000    50.14000000     9.60000000
   H     42.31000000    48.46000000     8.11000000
   H     40.45000000    47.49000000     8.87000000
   H     43.58000000    47.34000000     9.57000000
   H     42.55000000    47.79000000    10.97000000
   H     42.04000000    46.54000000     9.79000000
   N     40.52000000    51.33000000     8.35000000
   C     39.85000000    52.23000000     7.43000000
   C     40.13000000    53.71000000     7.61000000
   O     40.02000000    54.42000000     6.62000000
   C     38.34000000    52.02000000     7.51000000
   C     37.95000000    50.60000000     7.12000000
   C     36.49000000    50.22000000     6.88000000
   C     35.53000000    50.86000000     7.88000000
   N     34.15000000    50.40000000     7.64000000
   H     39.98000000    50.85000000     9.06000000
   H     40.17000000    51.88000000     6.45000000
   H     37.82000000    52.73000000     6.85000000
   H     37.98000000    52.14000000     8.54000000
   H     38.39000000    49.86000000     7.79000000
   H     38.46000000    50.29000000     6.20000000
   H     36.40000000    49.14000000     6.81000000
   H     36.23000000    50.62000000     5.90000000
   H     35.56000000    51.94000000     7.80000000
   H     35.84000000    50.58000000     8.89000000
   H     33.85000000    50.73000000     6.74000000
   H     34.09000000    49.39000000     7.70000000
   H     33.55000000    50.86000000     8.30000000
   N     40.46000000    54.06000000     8.86000000
   C     40.99000000    55.37000000     9.19000000
   C     42.44000000    55.47000000     8.73000000
   O     42.87000000    56.48000000     8.19000000
   C     40.77000000    55.72000000    10.66000000
   C     39.28000000    55.77000000    10.98000000
   C     38.96000000    56.00000000    12.45000000
   O     39.63000000    55.50000000    13.38000000
   O     38.00000000    56.71000000    12.83000000
   H     40.58000000    53.31000000     9.52000000
   H     40.40000000    56.05000000     8.58000000
   H     41.13000000    56.73000000    10.81000000
   H     41.20000000    54.93000000    11.27000000
   H     38.92000000    54.78000000    10.69000000
   H     38.83000000    56.48000000    10.28000000
   N     43.20000000    54.37000000     8.82000000
   C     44.56000000    54.31000000     8.31000000
   H     45.23700000    54.02500000     9.11500000
   H     44.61600000    53.57200000     7.51000000
   H     44.84700000    55.28800000     7.92400000
   H     42.90000000    53.56000000     9.35000000
  Ca     38.31000000    55.96000000    15.53000000
   O     39.31000000    53.56000000    16.13000000
   H     38.53000000    53.01000000    16.13000000
   H     39.48000000    53.73000000    17.06000000
   O     36.41000000    54.03000000    14.73000000
   H     35.53000000    54.40000000    14.66000000
   H     36.29000000    53.21000000    15.21000000

Ca 1.00



