%chk=loop2.holoCaM.run10.water1.chk
%nprocshared=20
%mem=10GB
%nosave
#b3lyp/svp scf=(tight,noincore,xqc) Test 
#IOP(5/87=12) Density=Current Pop=(MK,readradii) iop(6/33=2) iop(6/42=6)

loop2.holoCaM.run10.water1 

   -2  1 
   C     32.56000000    43.04000000    -2.14000000
   C     31.43000000    43.98000000    -2.54000000
   O     31.19000000    44.96000000    -1.84000000
   H     33.41300000    43.62400000    -1.79600000
   H     32.22100000    42.38500000    -1.33700000
   H     32.85500000    42.43900000    -3.00000000
   N     30.68000000    43.78000000    -3.63000000
   C     29.67000000    44.62000000    -4.24000000
   C     28.47000000    44.59000000    -3.30000000
   O     27.72000000    43.62000000    -3.25000000
   C     29.30000000    43.99000000    -5.58000000
   C     28.21000000    44.78000000    -6.29000000
   O     27.76000000    45.86000000    -5.85000000
   O     27.73000000    44.25000000    -7.31000000
   H     31.01000000    43.01000000    -4.19000000
   H     30.07000000    45.63000000    -4.32000000
   H     29.01000000    42.94000000    -5.53000000
   H     30.20000000    44.01000000    -6.20000000
   N     28.19000000    45.65000000    -2.53000000
   C     27.17000000    45.77000000    -1.51000000
   C     25.80000000    46.19000000    -2.04000000
   O     24.86000000    46.15000000    -1.25000000
   C     27.64000000    46.78000000    -0.47000000
   H     28.60000000    46.54000000    -2.78000000
   H     26.90000000    44.83000000    -1.03000000
   H     27.76000000    47.80000000    -0.84000000
   H     27.00000000    46.80000000     0.42000000
   H     28.61000000    46.46000000    -0.08000000
   N     25.62000000    46.69000000    -3.26000000
   C     24.32000000    46.89000000    -3.86000000
   C     24.01000000    45.84000000    -4.91000000
   O     22.91000000    45.91000000    -5.46000000
   C     24.12000000    48.34000000    -4.30000000
   C     25.21000000    48.93000000    -5.18000000
   O     26.11000000    48.21000000    -5.68000000
   O     25.25000000    50.16000000    -5.39000000
   H     26.37000000    46.60000000    -3.93000000
   H     23.63000000    46.76000000    -3.02000000
   H     24.21000000    48.98000000    -3.42000000
   H     23.14000000    48.53000000    -4.72000000
   N     24.86000000    44.88000000    -5.28000000
   C     24.66000000    43.91000000    -6.34000000
   C     24.73000000    44.38000000    -7.79000000
   O     24.25000000    43.61000000    -8.62000000
   H     25.83000000    44.93000000    -4.99000000
   H     23.70000000    43.44000000    -6.16000000
   H     25.42000000    43.13000000    -6.28000000
   N     25.10000000    45.63000000    -8.07000000
   C     24.82000000    46.21000000    -9.37000000
   C     25.63000000    45.68000000   -10.55000000
   O     25.18000000    45.71000000   -11.69000000
   C     25.08000000    47.71000000    -9.32000000
   C     26.55000000    48.07000000    -9.41000000
   N     26.89000000    48.75000000   -10.51000000
   O     27.45000000    47.72000000    -8.64000000
   H     25.67000000    46.08000000    -7.37000000
   H     23.76000000    46.08000000    -9.59000000
   H     24.75000000    48.06000000    -8.35000000
   H     24.51000000    48.12000000   -10.16000000
   H     26.16000000    48.80000000   -11.20000000
   H     27.89000000    48.83000000   -10.67000000
   N     26.78000000    45.08000000   -10.23000000
   C     27.74000000    44.41000000   -11.08000000
   C     29.15000000    44.97000000   -11.09000000
   O     29.96000000    44.45000000   -11.85000000
   H     27.00000000    44.98000000    -9.25000000
   H     27.41000000    44.39000000   -12.12000000
   H     27.84000000    43.37000000   -10.75000000
   N     29.44000000    46.01000000   -10.31000000
   C     30.72000000    46.70000000   -10.29000000
   C     31.16000000    47.10000000    -8.89000000
   O     30.40000000    47.25000000    -7.94000000
   C     30.85000000    47.90000000   -11.23000000
   C     30.59000000    47.54000000   -12.69000000
   O     29.91000000    48.88000000   -10.84000000
   H     28.75000000    46.41000000    -9.70000000
   H     31.41000000    45.92000000   -10.60000000
   H     31.82000000    48.39000000   -11.27000000
   H     30.07000000    49.61000000   -11.45000000
   H     29.55000000    47.27000000   -12.83000000
   H     30.76000000    48.44000000   -13.28000000
   H     31.24000000    46.72000000   -13.01000000
   N     32.45000000    47.42000000    -8.77000000
   C     33.09000000    47.89000000    -7.56000000
   C     33.07000000    49.42000000    -7.53000000
   O     33.75000000    50.07000000    -8.31000000
   C     34.53000000    47.38000000    -7.53000000
   C     34.76000000    45.92000000    -7.94000000
   C     35.18000000    47.57000000    -6.17000000
   C     36.19000000    45.45000000    -8.15000000
   H     33.05000000    47.29000000    -9.57000000
   H     32.70000000    47.40000000    -6.67000000
   H     35.12000000    47.93000000    -8.26000000
   H     34.16000000    45.73000000    -8.83000000
   H     34.35000000    45.21000000    -7.22000000
   H     35.06000000    48.61000000    -5.88000000
   H     34.87000000    46.83000000    -5.43000000
   H     36.26000000    47.47000000    -6.33000000
   H     36.90000000    45.49000000    -7.32000000
   H     36.23000000    44.38000000    -8.36000000
   H     36.62000000    46.02000000    -8.98000000
   N     32.50000000    49.98000000    -6.46000000
   C     32.67000000    51.35000000    -6.03000000
   C     33.86000000    51.53000000    -5.09000000
   O     34.33000000    50.55000000    -4.51000000
   C     31.40000000    51.91000000    -5.40000000
   C     30.08000000    51.57000000    -6.09000000
   O     29.25000000    50.76000000    -5.61000000
   O     29.90000000    52.16000000    -7.17000000
   H     32.07000000    49.35000000    -5.80000000
   H     32.89000000    51.94000000    -6.92000000
   H     31.47000000    52.99000000    -5.33000000
   H     31.29000000    51.53000000    -4.38000000
   N     34.30000000    52.75000000    -4.80000000
   C     35.48000000    52.96000000    -3.98000000
   C     35.39000000    52.50000000    -2.53000000
   O     36.31000000    51.82000000    -2.09000000
   C     35.87000000    54.43000000    -4.02000000
   C     37.02000000    54.77000000    -3.10000000
   C     38.26000000    54.31000000    -3.54000000
   C     36.92000000    55.20000000    -1.78000000
   C     39.38000000    54.44000000    -2.72000000
   C     38.04000000    55.43000000    -0.97000000
   C     39.30000000    55.06000000    -1.46000000
   H     33.83000000    53.57000000    -5.16000000
   H     36.30000000    52.39000000    -4.40000000
   H     35.06000000    55.08000000    -3.68000000
   H     35.97000000    54.71000000    -5.07000000
   H     38.43000000    53.78000000    -4.47000000
   H     36.02000000    55.68000000    -1.41000000
   H     40.34000000    53.99000000    -2.94000000
   H     37.98000000    55.88000000     0.01000000
   H     40.19000000    55.22000000    -0.87000000
   N     34.30000000    52.70000000    -1.77000000
   C     34.23000000    52.16000000    -0.43000000
   C     34.09000000    50.65000000    -0.47000000
   O     34.32000000    50.04000000     0.57000000
   C     32.96000000    52.79000000     0.13000000
   C     32.10000000    53.00000000    -1.11000000
   C     33.13000000    53.46000000    -2.14000000
   H     35.09000000    52.50000000     0.14000000
   H     32.40000000    52.19000000     0.85000000
   H     33.16000000    53.75000000     0.60000000
   H     31.67000000    52.05000000    -1.44000000
   H     31.37000000    53.79000000    -0.93000000
   H     32.68000000    53.19000000    -3.10000000
   H     33.31000000    54.54000000    -2.05000000
   N     33.91000000    49.91000000    -1.57000000
   C     33.82000000    48.48000000    -1.72000000
   C     35.19000000    48.01000000    -2.19000000
   O     35.67000000    46.91000000    -1.93000000
   C     32.82000000    48.14000000    -2.83000000
   C     31.40000000    48.67000000    -2.70000000
   C     30.48000000    48.31000000    -3.85000000
   O     30.82000000    48.32000000    -5.06000000
   O     29.27000000    48.06000000    -3.65000000
   H     33.80000000    50.37000000    -2.47000000
   H     33.58000000    48.01000000    -0.77000000
   H     32.65000000    47.06000000    -2.84000000
   H     33.21000000    48.34000000    -3.83000000
   H     31.38000000    49.76000000    -2.67000000
   H     30.94000000    48.32000000    -1.78000000
   N     35.91000000    48.78000000    -3.01000000
   C     37.30000000    48.60000000    -3.36000000
   H     37.91000000    48.64800000    -2.45800000
   H     37.43300000    47.62800000    -3.83600000
   H     37.60700000    49.38700000    -4.04800000
   H     35.51000000    49.66000000    -3.29000000
  Ca     28.57000000    48.30000000    -6.26700000
   O     29.10000000    49.83000000    -8.40700000
   H     29.43000000    49.57000000    -9.26700000
   H     29.42000000    50.72000000    -8.28700000

Ca 1.00



