%chk=loop1.apoCaM-CA-Ng.Init295.run71.water5.chk
%nprocshared=20
%mem=10GB
%nosave
#b3lyp/svp scf=(tight,noincore,xqc) Test 
#IOP(5/87=12) Density=Current Pop=(MK,readradii) iop(6/33=2) iop(6/42=6)

loop1.apoCaM-CA-Ng.Init295.run71.water5 

   0  1 
   C      7.64000000    11.86000000    54.45000000
   C      8.51000000    12.56000000    53.41000000
   O      8.17000000    13.62000000    52.89000000
   H      6.66800000    11.62900000    54.01400000
   H      8.12400000    10.93600000    54.76700000
   H      7.50500000    12.51400000    55.31100000
   N      9.73000000    12.09000000    53.16000000
   C     10.70000000    12.79000000    52.34000000
   C     10.56000000    12.50000000    50.85000000
   O     10.38000000    11.33000000    50.53000000
   C     12.11000000    12.42000000    52.79000000
   C     12.34000000    12.86000000    54.23000000
   O     12.47000000    14.06000000    54.56000000
   O     12.42000000    12.01000000    55.15000000
   H      9.99000000    11.18000000    53.51000000
   H     10.39000000    13.83000000    52.43000000
   H     12.90000000    12.91000000    52.23000000
   H     12.22000000    11.34000000    52.69000000
   N     10.78000000    13.50000000    49.99000000
   C     11.00000000    13.22000000    48.58000000
   C     12.40000000    12.66000000    48.38000000
   O     12.60000000    11.74000000    47.58000000
   C     10.73000000    14.53000000    47.85000000
   C     10.87000000    14.65000000    46.34000000
   C     10.24000000    15.95000000    45.84000000
   C     10.37000000    15.98000000    44.32000000
   N      9.67000000    17.16000000    43.78000000
   H     10.89000000    14.42000000    50.38000000
   H     10.27000000    12.47000000    48.27000000
   H     11.34000000    15.28000000    48.35000000
   H      9.70000000    14.69000000    48.19000000
   H     10.24000000    13.85000000    45.96000000
   H     11.94000000    14.58000000    46.10000000
   H     10.90000000    16.69000000    46.29000000
   H      9.24000000    16.01000000    46.27000000
   H      9.90000000    15.10000000    43.89000000
   H     11.43000000    16.07000000    44.09000000
   H     10.30000000    17.96000000    43.81000000
   H      9.35000000    16.92000000    42.86000000
   H      8.82000000    17.43000000    44.26000000
   N     13.38000000    13.25000000    49.05000000
   C     14.78000000    12.89000000    49.17000000
   C     15.31000000    12.99000000    50.59000000
   O     15.24000000    14.00000000    51.29000000
   C     15.53000000    13.78000000    48.18000000
   C     17.02000000    13.76000000    48.45000000
   O     17.69000000    12.71000000    48.37000000
   O     17.60000000    14.84000000    48.71000000
   H     13.07000000    13.94000000    49.72000000
   H     14.97000000    11.87000000    48.83000000
   H     15.25000000    14.81000000    48.41000000
   H     15.22000000    13.51000000    47.16000000
   N     16.05000000    11.97000000    51.04000000
   C     16.95000000    11.91000000    52.17000000
   C     17.89000000    10.72000000    51.97000000
   O     17.61000000     9.76000000    51.26000000
   H     16.19000000    11.16000000    50.45000000
   H     16.42000000    11.75000000    53.11000000
   H     17.55000000    12.81000000    52.28000000
   N     19.06000000    10.85000000    52.61000000
   C     20.08000000     9.83000000    52.71000000
   C     19.98000000     9.23000000    54.11000000
   O     19.57000000     9.88000000    55.07000000
   C     21.40000000    10.41000000    52.24000000
   C     21.24000000    11.44000000    51.14000000
   O     20.56000000    11.27000000    50.11000000
   O     21.76000000    12.57000000    51.30000000
   H     19.22000000    11.74000000    53.06000000
   H     19.82000000     9.01000000    52.05000000
   H     21.89000000     9.51000000    51.88000000
   H     22.02000000    10.95000000    52.97000000
   N     20.47000000     8.01000000    54.29000000
   C     20.65000000     7.42000000    55.61000000
   C     20.97000000     5.93000000    55.58000000
   O     21.41000000     5.33000000    54.60000000
   H     20.75000000     7.49000000    53.48000000
   H     19.80000000     7.57000000    56.27000000
   H     21.52000000     7.92000000    56.02000000
   N     20.84000000     5.33000000    56.76000000
   C     20.96000000     3.90000000    57.02000000
   C     22.35000000     3.48000000    57.47000000
   O     23.07000000     4.22000000    58.14000000
   C     19.92000000     3.41000000    58.02000000
   C     18.47000000     3.44000000    57.54000000
   O     20.21000000     2.08000000    58.39000000
   H     20.48000000     5.88000000    57.52000000
   H     20.71000000     3.38000000    56.10000000
   H     19.98000000     4.08000000    58.88000000
   H     19.36000000     1.65000000    58.37000000
   H     17.77000000     3.01000000    58.26000000
   H     18.11000000     4.45000000    57.31000000
   H     18.39000000     2.80000000    56.66000000
   N     22.81000000     2.30000000    57.04000000
   C     24.11000000     1.77000000    57.41000000
   C     25.09000000     1.56000000    56.27000000
   O     26.23000000     1.12000000    56.39000000
   C     24.03000000     0.61000000    58.40000000
   C     23.53000000    -0.70000000    57.79000000
   C     23.18000000     0.85000000    59.65000000
   C     23.74000000    -1.93000000    58.67000000
   H     22.16000000     1.66000000    56.61000000
   H     24.65000000     2.48000000    58.04000000
   H     25.06000000     0.47000000    58.74000000
   H     24.06000000    -0.87000000    56.86000000
   H     22.48000000    -0.71000000    57.51000000
   H     23.57000000     1.78000000    60.06000000
   H     22.12000000     0.78000000    59.44000000
   H     23.37000000     0.11000000    60.42000000
   H     23.10000000    -1.89000000    59.56000000
   H     23.49000000    -2.84000000    58.13000000
   H     24.78000000    -1.93000000    59.00000000
   N     24.81000000     2.12000000    55.09000000
   C     25.68000000     2.12000000    53.93000000
   C     24.79000000     1.79000000    52.74000000
   O     24.30000000     2.72000000    52.10000000
   C     26.47000000     3.41000000    53.75000000
   C     27.43000000     3.96000000    54.80000000
   O     27.39000000     3.22000000    52.70000000
   H     23.99000000     2.71000000    55.03000000
   H     26.41000000     1.33000000    54.10000000
   H     25.77000000     4.20000000    53.49000000
   H     27.19000000     3.80000000    51.96000000
   H     27.96000000     4.80000000    54.36000000
   H     26.82000000     4.32000000    55.63000000
   H     28.12000000     3.17000000    55.11000000
   N     24.49000000     0.50000000    52.62000000
   C     23.71000000    -0.08000000    51.54000000
   C     22.89000000    -1.32000000    51.86000000
   O     21.95000000    -1.58000000    51.12000000
   C     24.70000000    -0.27000000    50.40000000
   C     24.13000000    -0.66000000    49.04000000
   O     25.56000000    -1.34000000    50.71000000
   H     25.08000000    -0.16000000    53.10000000
   H     22.96000000     0.71000000    51.39000000
   H     25.23000000     0.67000000    50.24000000
   H     26.36000000    -1.09000000    50.23000000
   H     23.51000000    -1.56000000    49.08000000
   H     23.49000000     0.12000000    48.63000000
   H     24.94000000    -0.85000000    48.33000000
   N     23.19000000    -2.01000000    52.97000000
   C     22.42000000    -3.11000000    53.51000000
   C     21.01000000    -2.69000000    53.87000000
   O     20.72000000    -1.53000000    54.14000000
   C     23.22000000    -3.69000000    54.67000000
   C     24.46000000    -4.45000000    54.20000000
   C     25.39000000    -4.58000000    55.40000000
   C     26.25000000    -5.82000000    55.19000000
   N     27.35000000    -5.42000000    54.28000000
   H     24.05000000    -1.80000000    53.46000000
   H     22.29000000    -3.82000000    52.69000000
   H     22.62000000    -4.45000000    55.18000000
   H     23.40000000    -2.89000000    55.39000000
   H     24.86000000    -3.90000000    53.35000000
   H     24.18000000    -5.39000000    53.74000000
   H     24.81000000    -4.72000000    56.32000000
   H     26.12000000    -3.77000000    55.50000000
   H     25.64000000    -6.58000000    54.71000000
   H     26.76000000    -6.08000000    56.12000000
   H     27.10000000    -4.71000000    53.61000000
   H     28.13000000    -4.99000000    54.75000000
   H     27.61000000    -6.26000000    53.79000000
   N     20.22000000    -3.74000000    54.11000000
   C     18.87000000    -3.73000000    54.66000000
   C     17.90000000    -4.62000000    53.90000000
   O     18.28000000    -5.55000000    53.19000000
   C     18.93000000    -4.07000000    56.14000000
   C     19.52000000    -2.97000000    57.02000000
   C     19.50000000    -3.32000000    58.50000000
   O     18.96000000    -2.54000000    59.32000000
   O     20.22000000    -4.23000000    58.95000000
   H     20.59000000    -4.60000000    53.73000000
   H     18.47000000    -2.72000000    54.57000000
   H     19.52000000    -4.98000000    56.21000000
   H     17.90000000    -4.28000000    56.44000000
   H     19.10000000    -1.97000000    56.86000000
   H     20.56000000    -2.92000000    56.70000000
   N     16.59000000    -4.39000000    54.07000000
   C     15.93000000    -3.28000000    54.72000000
   H     14.94400000    -3.59400000    55.06200000
   H     16.52300000    -2.95300000    55.57400000
   H     15.82400000    -2.45600000    54.01400000
   H     15.97000000    -5.07000000    53.65000000
  Ca     20.07000000    13.54000000    49.07000000
   O     20.05000000    15.06000000    46.54000000
   H     19.24000000    14.94000000    46.05000000
   H     20.72000000    15.18000000    45.86000000
   O     22.72000000    13.18000000    48.29000000
   H     23.22000000    12.37000000    48.25000000
   H     23.23000000    13.80000000    47.77000000
   O     20.38000000    12.32000000    46.76000000
   H     20.81000000    12.62000000    45.96000000
   H     19.98000000    11.48000000    46.52000000
   O     19.37000000    14.58000000    51.51000000
   H     20.01000000    15.21000000    51.84000000
   H     18.58000000    14.75000000    52.02000000
   O     20.89000000    16.13000000    49.40000000
   H     21.09000000    16.82000000    48.77000000
   H     21.27000000    16.44000000    50.22000000

Ca 1.00



