%chk=loop3.holoCaM.run72.water2.chk
%nprocshared=20
%mem=10GB
%nosave
#b3lyp/svp scf=(tight,noincore,xqc) Test 
#IOP(5/87=12) Density=Current Pop=(MK,readradii) iop(6/33=2) iop(6/42=6)

loop3.holoCaM.run72.water2 

   0  1 
   C     80.36000000    55.18000000    31.05000000
   C     81.08000000    56.20000000    31.94000000
   O     81.55000000    55.70000000    32.96000000
   H     79.44000000    55.62000000    30.66500000
   H     81.00600000    54.90400000    30.21700000
   H     80.12000000    54.29200000    31.63500000
   N     81.11000000    57.48000000    31.56000000
   C     81.82000000    58.59000000    32.17000000
   C     80.88000000    59.57000000    32.86000000
   O     80.80000000    60.73000000    32.47000000
   C     82.85000000    59.25000000    31.27000000
   C     83.52000000    60.47000000    31.90000000
   O     83.62000000    61.57000000    31.31000000
   O     84.10000000    60.21000000    32.97000000
   H     80.64000000    57.71000000    30.70000000
   H     82.30000000    58.12000000    33.03000000
   H     82.38000000    59.68000000    30.38000000
   H     83.61000000    58.58000000    30.86000000
   N     80.11000000    59.14000000    33.86000000
   C     78.91000000    59.75000000    34.39000000
   C     79.11000000    60.91000000    35.35000000
   O     78.16000000    61.67000000    35.59000000
   C     77.82000000    58.74000000    34.74000000
   C     77.32000000    58.14000000    33.43000000
   C     76.13000000    57.20000000    33.66000000
   C     76.55000000    55.86000000    34.27000000
   N     75.41000000    54.94000000    34.32000000
   H     80.39000000    58.24000000    34.23000000
   H     78.57000000    60.26000000    33.49000000
   H     76.95000000    59.23000000    35.20000000
   H     78.28000000    58.10000000    35.49000000
   H     78.06000000    57.54000000    32.91000000
   H     76.97000000    58.96000000    32.81000000
   H     75.61000000    57.10000000    32.71000000
   H     75.33000000    57.65000000    34.24000000
   H     76.94000000    56.15000000    35.25000000
   H     77.35000000    55.46000000    33.65000000
   H     75.09000000    54.88000000    33.36000000
   H     75.56000000    54.05000000    34.77000000
   H     74.62000000    55.31000000    34.83000000
   N     80.34000000    61.06000000    35.84000000
   C     80.88000000    62.27000000    36.43000000
   C     81.47000000    63.28000000    35.46000000
   O     81.73000000    64.43000000    35.82000000
   C     82.12000000    61.87000000    37.22000000
   C     83.20000000    61.06000000    36.51000000
   O     84.36000000    61.47000000    36.29000000
   O     82.84000000    59.94000000    36.08000000
   H     81.02000000    60.36000000    35.58000000
   H     80.19000000    62.86000000    37.03000000
   H     81.85000000    61.13000000    37.97000000
   H     82.56000000    62.76000000    37.66000000
   N     81.56000000    62.94000000    34.17000000
   C     81.79000000    63.81000000    33.04000000
   C     83.22000000    64.30000000    32.80000000
   O     83.48000000    65.06000000    31.88000000
   H     81.23000000    62.02000000    33.90000000
   H     81.20000000    64.71000000    33.21000000
   H     81.53000000    63.45000000    32.05000000
   N     84.17000000    63.81000000    33.60000000
   C     85.53000000    64.30000000    33.61000000
   C     86.47000000    63.85000000    32.50000000
   O     87.58000000    64.36000000    32.42000000
   C     86.14000000    63.88000000    34.95000000
   C     86.73000000    62.48000000    35.03000000
   N     87.85000000    62.40000000    35.76000000
   O     86.43000000    61.49000000    34.36000000
   H     83.97000000    63.06000000    34.24000000
   H     85.57000000    65.39000000    33.65000000
   H     85.37000000    64.01000000    35.71000000
   H     86.86000000    64.67000000    35.12000000
   H     88.12000000    63.24000000    36.26000000
   H     88.48000000    61.62000000    35.71000000
   N     86.02000000    62.96000000    31.61000000
   C     86.74000000    62.68000000    30.39000000
   C     87.73000000    61.52000000    30.46000000
   O     88.42000000    61.31000000    29.46000000
   H     85.09000000    62.61000000    31.77000000
   H     87.37000000    63.54000000    30.15000000
   H     86.17000000    62.43000000    29.49000000
   N     87.91000000    60.89000000    31.62000000
   C     88.65000000    59.66000000    31.81000000
   C     87.76000000    58.56000000    32.39000000
   O     86.91000000    58.74000000    33.25000000
   C     89.75000000    59.94000000    32.82000000
   C     90.74000000    61.04000000    32.49000000
   C     90.51000000    62.34000000    32.95000000
   C     91.85000000    60.80000000    31.68000000
   C     91.44000000    63.33000000    32.64000000
   C     92.71000000    61.82000000    31.23000000
   C     92.53000000    63.10000000    31.78000000
   O     93.37000000    64.15000000    31.53000000
   H     87.29000000    61.00000000    32.41000000
   H     89.09000000    59.35000000    30.86000000
   H     90.29000000    59.01000000    33.04000000
   H     89.32000000    60.17000000    33.80000000
   H     89.60000000    62.55000000    33.51000000
   H     92.09000000    59.83000000    31.27000000
   H     91.34000000    64.36000000    32.97000000
   H     93.57000000    61.74000000    30.59000000
   H     94.18000000    63.88000000    31.08000000
   N     88.03000000    57.33000000    31.95000000
   C     87.42000000    56.10000000    32.44000000
   C     88.48000000    55.44000000    33.30000000
   O     89.54000000    55.08000000    32.79000000
   C     86.92000000    55.22000000    31.30000000
   C     85.55000000    55.74000000    30.88000000
   C     86.92000000    53.70000000    31.49000000
   C     84.96000000    55.05000000    29.65000000
   H     88.76000000    57.22000000    31.27000000
   H     86.66000000    56.34000000    33.18000000
   H     87.63000000    55.44000000    30.50000000
   H     85.64000000    56.80000000    30.65000000
   H     84.90000000    55.66000000    31.75000000
   H     85.99000000    53.44000000    32.00000000
   H     86.77000000    53.12000000    30.59000000
   H     87.72000000    53.29000000    32.11000000
   H     84.11000000    55.66000000    29.35000000
   H     85.67000000    55.09000000    28.82000000
   H     84.75000000    54.01000000    29.89000000
   N     88.20000000    55.23000000    34.59000000
   C     88.96000000    54.40000000    35.50000000
   C     88.56000000    52.94000000    35.39000000
   O     87.56000000    52.63000000    34.74000000
   C     88.85000000    54.82000000    36.97000000
   O     87.58000000    54.93000000    37.57000000
   H     87.28000000    55.53000000    34.89000000
   H     89.98000000    54.52000000    35.14000000
   H     89.38000000    55.77000000    37.01000000
   H     89.47000000    54.20000000    37.60000000
   H     86.98000000    55.34000000    36.94000000
   N     89.30000000    51.98000000    35.94000000
   C     89.00000000    50.56000000    35.96000000
   C     87.58000000    50.24000000    36.43000000
   O     86.89000000    49.39000000    35.88000000
   C     90.10000000    49.90000000    36.78000000
   H     90.09000000    52.32000000    36.47000000
   H     89.12000000    50.15000000    34.96000000
   H     91.06000000    49.93000000    36.26000000
   H     90.14000000    50.41000000    37.74000000
   H     89.87000000    48.85000000    36.98000000
   N     87.16000000    50.81000000    37.56000000
   C     85.84000000    50.73000000    38.15000000
   C     84.67000000    51.32000000    37.38000000
   O     83.53000000    51.34000000    37.84000000
   C     85.87000000    51.19000000    39.60000000
   H     87.86000000    51.34000000    38.06000000
   H     85.68000000    49.65000000    38.17000000
   H     86.08000000    52.26000000    39.55000000
   H     85.04000000    50.93000000    40.25000000
   H     86.70000000    50.73000000    40.14000000
   N     84.98000000    51.93000000    36.23000000
   C     84.06000000    52.31000000    35.18000000
   C     84.30000000    51.37000000    34.01000000
   O     83.31000000    50.73000000    33.67000000
   C     84.23000000    53.74000000    34.68000000
   C     84.11000000    54.71000000    35.85000000
   C     84.56000000    56.12000000    35.49000000
   O     83.76000000    56.98000000    35.06000000
   O     85.75000000    56.46000000    35.63000000
   H     85.96000000    52.06000000    36.00000000
   H     83.04000000    52.32000000    35.58000000
   H     83.51000000    54.03000000    33.92000000
   H     85.21000000    53.84000000    34.21000000
   H     84.65000000    54.37000000    36.73000000
   H     83.04000000    54.81000000    36.05000000
   N     85.49000000    51.12000000    33.48000000
   C     85.78000000    50.28000000    32.33000000
   H     86.80700000    49.92000000    32.39400000
   H     85.09800000    49.43000000    32.31900000
   H     85.65500000    50.85900000    31.41500000
   H     86.24000000    51.77000000    33.68000000
  Ca     85.18000000    59.23000000    35.12000000
   O     87.76000000    58.70000000    36.11000000
   H     88.60000000    58.31000000    35.85000000
   H     87.76000000    58.65000000    37.07000000
   O     85.04000000    58.78000000    37.88000000
   H     85.76000000    58.51000000    38.45000000
   H     84.26000000    58.44000000    38.32000000

Ca 1.00



