%chk=loop2.holoCaM-CaMKII.run4.water2.chk
%nprocshared=20
%mem=10GB
%nosave
#b3lyp/svp scf=(tight,noincore,xqc) Test 
#IOP(5/87=12) Density=Current Pop=(MK,readradii) iop(6/33=2) iop(6/42=6)

loop2.holoCaM-CaMKII.run4.water2 

   -2  1 
   C     62.30000000    62.21000000    20.01000000
   C     63.21000000    63.00000000    19.09000000
   O     64.03000000    63.83000000    19.50000000
   H     61.34100000    62.04600000    19.51900000
   H     62.75900000    61.24800000    20.23800000
   H     62.14400000    62.76700000    20.93400000
   N     63.14000000    62.83000000    17.77000000
   C     64.01000000    63.46000000    16.80000000
   C     63.66000000    64.90000000    16.44000000
   O     62.52000000    65.33000000    16.58000000
   C     64.01000000    62.60000000    15.54000000
   C     65.05000000    62.97000000    14.50000000
   O     66.11000000    63.52000000    14.89000000
   O     64.90000000    62.58000000    13.32000000
   H     62.53000000    62.09000000    17.44000000
   H     65.05000000    63.45000000    17.14000000
   H     63.02000000    62.64000000    15.09000000
   H     64.17000000    61.56000000    15.81000000
   N     64.57000000    65.66000000    15.81000000
   C     64.44000000    66.89000000    15.05000000
   C     65.25000000    67.11000000    13.78000000
   O     65.30000000    68.23000000    13.29000000
   C     64.70000000    68.04000000    16.02000000
   H     65.48000000    65.24000000    15.91000000
   H     63.38000000    66.80000000    14.84000000
   H     65.72000000    68.04000000    16.39000000
   H     64.46000000    69.02000000    15.62000000
   H     64.14000000    67.96000000    16.96000000
   N     66.06000000    66.17000000    13.29000000
   C     66.93000000    66.35000000    12.15000000
   C     67.05000000    65.20000000    11.16000000
   O     67.37000000    65.46000000    10.00000000
   C     68.37000000    66.65000000    12.57000000
   C     68.90000000    65.79000000    13.72000000
   O     68.64000000    64.57000000    13.62000000
   O     69.58000000    66.29000000    14.64000000
   H     65.95000000    65.32000000    13.82000000
   H     66.56000000    67.17000000    11.53000000
   H     68.43000000    67.69000000    12.90000000
   H     69.08000000    66.58000000    11.74000000
   N     66.82000000    63.96000000    11.61000000
   C     66.91000000    62.78000000    10.77000000
   C     68.29000000    62.13000000    10.69000000
   O     68.42000000    61.24000000     9.85000000
   H     66.56000000    63.90000000    12.58000000
   H     66.58000000    63.00000000     9.75000000
   H     66.18000000    62.06000000    11.13000000
   N     69.25000000    62.46000000    11.55000000
   C     70.59000000    61.91000000    11.57000000
   C     70.80000000    60.52000000    12.15000000
   O     71.90000000    59.97000000    12.15000000
   C     71.47000000    62.95000000    12.27000000
   C     71.37000000    63.08000000    13.78000000
   N     72.18000000    63.93000000    14.43000000
   O     70.58000000    62.45000000    14.48000000
   H     68.99000000    63.12000000    12.26000000
   H     70.92000000    61.94000000    10.54000000
   H     71.38000000    63.97000000    11.90000000
   H     72.46000000    62.65000000    11.95000000
   H     72.83000000    64.52000000    13.94000000
   H     72.12000000    64.15000000    15.41000000
   N     69.70000000    59.87000000    12.53000000
   C     69.69000000    58.45000000    12.83000000
   C     70.19000000    58.21000000    14.25000000
   O     70.31000000    57.06000000    14.65000000
   H     68.89000000    60.43000000    12.75000000
   H     70.40000000    57.92000000    12.19000000
   H     68.70000000    58.01000000    12.69000000
   N     70.47000000    59.24000000    15.04000000
   C     70.94000000    59.11000000    16.41000000
   C     70.12000000    60.00000000    17.33000000
   O     69.63000000    61.01000000    16.82000000
   C     72.40000000    59.49000000    16.59000000
   C     73.24000000    58.70000000    15.60000000
   O     72.65000000    60.86000000    16.36000000
   H     70.42000000    60.20000000    14.72000000
   H     70.78000000    58.07000000    16.69000000
   H     72.64000000    59.24000000    17.63000000
   H     71.79000000    61.27000000    16.41000000
   H     74.29000000    58.97000000    15.74000000
   H     73.05000000    57.66000000    15.87000000
   H     72.92000000    58.97000000    14.59000000
   N     69.95000000    59.78000000    18.63000000
   C     69.44000000    60.70000000    19.63000000
   C     70.66000000    61.51000000    20.03000000
   O     71.65000000    60.98000000    20.54000000
   C     68.83000000    59.98000000    20.83000000
   C     67.62000000    59.14000000    20.47000000
   C     68.29000000    61.05000000    21.78000000
   C     67.26000000    58.24000000    21.66000000
   H     70.50000000    59.00000000    18.97000000
   H     68.72000000    61.37000000    19.17000000
   H     69.56000000    59.41000000    21.40000000
   H     67.85000000    58.47000000    19.64000000
   H     66.83000000    59.84000000    20.20000000
   H     68.27000000    60.55000000    22.76000000
   H     68.89000000    61.95000000    21.67000000
   H     67.28000000    61.34000000    21.51000000
   H     66.52000000    58.71000000    22.30000000
   H     66.95000000    57.30000000    21.21000000
   H     68.16000000    58.12000000    22.26000000
   N     70.72000000    62.80000000    19.71000000
   C     71.67000000    63.81000000    20.12000000
   C     71.53000000    64.21000000    21.58000000
   O     70.40000000    64.27000000    22.07000000
   C     71.58000000    65.01000000    19.18000000
   C     71.70000000    64.61000000    17.72000000
   O     70.72000000    64.19000000    17.06000000
   O     72.78000000    64.76000000    17.11000000
   H     69.83000000    63.20000000    19.46000000
   H     72.70000000    63.44000000    20.10000000
   H     72.43000000    65.64000000    19.45000000
   H     70.64000000    65.53000000    19.37000000
   N     72.57000000    64.49000000    22.35000000
   C     72.39000000    65.04000000    23.69000000
   C     71.46000000    66.23000000    23.81000000
   O     70.69000000    66.31000000    24.77000000
   C     73.76000000    65.17000000    24.35000000
   C     73.83000000    65.65000000    25.78000000
   C     74.28000000    66.93000000    26.13000000
   C     73.47000000    64.74000000    26.79000000
   C     74.34000000    67.35000000    27.47000000
   C     73.51000000    65.16000000    28.12000000
   C     73.86000000    66.48000000    28.45000000
   H     73.53000000    64.34000000    22.07000000
   H     71.79000000    64.35000000    24.28000000
   H     74.33000000    65.87000000    23.73000000
   H     74.39000000    64.29000000    24.27000000
   H     74.55000000    67.57000000    25.31000000
   H     73.25000000    63.73000000    26.51000000
   H     74.55000000    68.37000000    27.75000000
   H     73.26000000    64.51000000    28.94000000
   H     74.01000000    66.74000000    29.49000000
   N     71.41000000    67.20000000    22.90000000
   C     70.48000000    68.30000000    23.01000000
   C     69.00000000    67.94000000    22.91000000
   O     68.14000000    68.49000000    23.59000000
   C     70.85000000    69.28000000    21.90000000
   C     72.37000000    69.14000000    21.92000000
   C     72.47000000    67.62000000    21.99000000
   H     70.68000000    68.84000000    23.93000000
   H     70.47000000    69.02000000    20.91000000
   H     70.53000000    70.31000000    22.10000000
   H     72.87000000    69.55000000    21.04000000
   H     72.90000000    69.51000000    22.80000000
   H     72.51000000    67.27000000    20.96000000
   H     73.48000000    67.52000000    22.38000000
   N     68.63000000    66.97000000    22.07000000
   C     67.37000000    66.26000000    22.06000000
   C     67.01000000    65.53000000    23.35000000
   O     65.83000000    65.47000000    23.69000000
   C     67.24000000    65.28000000    20.90000000
   C     67.26000000    65.87000000    19.50000000
   C     67.47000000    64.91000000    18.33000000
   O     67.13000000    65.28000000    17.19000000
   O     67.98000000    63.78000000    18.53000000
   H     69.44000000    66.42000000    21.79000000
   H     66.63000000    67.04000000    21.91000000
   H     66.35000000    64.65000000    20.84000000
   H     68.05000000    64.55000000    20.95000000
   H     68.13000000    66.52000000    19.43000000
   H     66.31000000    66.40000000    19.43000000
   N     67.93000000    64.88000000    24.06000000
   C     67.80000000    64.27000000    25.37000000
   H     66.74600000    64.09900000    25.58800000
   H     68.33200000    63.31900000    25.38300000
   H     68.22300000    64.93400000    26.12400000
   H     68.75000000    64.63000000    23.53000000
  Ca     68.53000000    63.36000000    16.00000000
   O     66.67000000    61.66000000    17.51000000
   H     66.76000000    62.30000000    18.21000000
   H     65.84000000    61.22000000    17.68000000
   O     67.66000000    61.29000000    14.25000000
   H     67.14000000    60.51000000    14.46000000
   H     67.12000000    61.79000000    13.64000000

Ca 1.00



