%chk=loop2.apoCaM-CA-Ng.Init293.run20.water7.chk
%nprocshared=20
%mem=10GB
%nosave
#b3lyp/svp scf=(tight,noincore,xqc) Test 
#IOP(5/87=12) Density=Current Pop=(MK,readradii) iop(6/33=2) iop(6/42=6)

loop2.apoCaM-CA-Ng.Init293.run20.water7 

   -2  1 
   C     56.41000000   -13.17000000    28.68000000
   C     55.70000000   -14.21000000    29.54000000
   O     55.84000000   -14.19000000    30.76000000
   H     57.40100000   -13.53600000    28.41200000
   H     55.83200000   -12.99100000    27.77300000
   H     56.50600000   -12.23900000    29.23900000
   N     55.05000000   -15.22000000    28.95000000
   C     54.54000000   -16.46000000    29.50000000
   C     55.61000000   -17.25000000    30.22000000
   O     55.33000000   -17.82000000    31.27000000
   C     53.97000000   -17.19000000    28.29000000
   C     53.12000000   -18.40000000    28.68000000
   O     52.01000000   -18.29000000    29.25000000
   O     53.64000000   -19.51000000    28.48000000
   H     55.03000000   -15.11000000    27.94000000
   H     53.79000000   -16.17000000    30.23000000
   H     54.65000000   -17.51000000    27.51000000
   H     53.18000000   -16.57000000    27.86000000
   N     56.87000000   -17.24000000    29.78000000
   C     58.00000000   -17.93000000    30.38000000
   C     58.25000000   -17.69000000    31.86000000
   O     58.56000000   -18.64000000    32.59000000
   C     57.94000000   -19.40000000    29.98000000
   H     57.07000000   -16.65000000    28.98000000
   H     58.80000000   -17.60000000    29.72000000
   H     58.81000000   -19.97000000    30.31000000
   H     57.16000000   -19.98000000    30.47000000
   H     57.84000000   -19.48000000    28.90000000
   N     58.19000000   -16.39000000    32.18000000
   C     58.39000000   -15.90000000    33.52000000
   C     57.60000000   -16.55000000    34.65000000
   O     58.03000000   -16.35000000    35.79000000
   C     59.89000000   -15.82000000    33.78000000
   C     60.63000000   -15.36000000    32.53000000
   O     61.62000000   -15.95000000    32.05000000
   O     60.30000000   -14.24000000    32.09000000
   H     57.86000000   -15.72000000    31.50000000
   H     58.04000000   -14.87000000    33.45000000
   H     60.18000000   -16.85000000    34.01000000
   H     60.15000000   -15.14000000    34.59000000
   N     56.49000000   -17.24000000    34.42000000
   C     55.63000000   -17.73000000    35.48000000
   C     55.11000000   -16.64000000    36.40000000
   O     54.90000000   -15.54000000    35.90000000
   H     56.19000000   -17.47000000    33.49000000
   H     56.32000000   -18.33000000    36.08000000
   H     54.81000000   -18.37000000    35.15000000
   N     54.99000000   -16.95000000    37.69000000
   C     54.76000000   -16.01000000    38.78000000
   C     53.45000000   -15.26000000    38.64000000
   O     53.32000000   -14.09000000    39.01000000
   C     55.96000000   -15.07000000    38.90000000
   C     57.18000000   -15.79000000    39.46000000
   N     58.23000000   -15.94000000    38.66000000
   O     57.20000000   -16.33000000    40.56000000
   H     55.30000000   -17.89000000    37.90000000
   H     54.76000000   -16.63000000    39.67000000
   H     55.71000000   -14.24000000    39.56000000
   H     56.19000000   -14.55000000    37.97000000
   H     58.32000000   -15.39000000    37.81000000
   H     59.08000000   -16.41000000    38.94000000
   N     52.46000000   -15.84000000    37.96000000
   C     51.20000000   -15.26000000    37.54000000
   C     51.09000000   -14.52000000    36.21000000
   O     50.01000000   -14.26000000    35.68000000
   H     52.71000000   -16.70000000    37.50000000
   H     50.86000000   -14.47000000    38.21000000
   H     50.41000000   -16.01000000    37.46000000
   N     52.26000000   -14.31000000    35.59000000
   C     52.38000000   -13.59000000    34.34000000
   C     52.96000000   -12.22000000    34.62000000
   O     53.70000000   -11.92000000    35.56000000
   C     53.26000000   -14.26000000    33.29000000
   C     53.17000000   -15.78000000    33.17000000
   O     53.08000000   -13.70000000    32.00000000
   H     53.10000000   -14.78000000    35.90000000
   H     51.37000000   -13.45000000    33.94000000
   H     54.31000000   -14.11000000    33.54000000
   H     53.89000000   -13.89000000    31.52000000
   H     54.01000000   -16.09000000    32.56000000
   H     53.25000000   -16.33000000    34.11000000
   H     52.28000000   -16.08000000    32.61000000
   N     52.55000000   -11.25000000    33.79000000
   C     53.24000000    -9.98000000    33.69000000
   C     54.75000000   -10.05000000    33.52000000
   O     55.23000000   -11.01000000    32.91000000
   C     52.55000000    -9.10000000    32.65000000
   C     52.72000000    -7.60000000    32.93000000
   C     52.90000000    -9.51000000    31.23000000
   C     52.01000000    -6.71000000    31.91000000
   H     51.90000000   -11.48000000    33.06000000
   H     53.09000000    -9.47000000    34.64000000
   H     51.49000000    -9.27000000    32.82000000
   H     53.78000000    -7.36000000    32.96000000
   H     52.34000000    -7.35000000    33.92000000
   H     52.92000000   -10.60000000    31.18000000
   H     52.11000000    -9.18000000    30.55000000
   H     53.88000000    -9.05000000    31.07000000
   H     52.59000000    -6.63000000    31.00000000
   H     50.95000000    -6.98000000    31.86000000
   H     52.02000000    -5.70000000    32.32000000
   N     55.43000000    -9.05000000    34.07000000
   C     56.87000000    -8.89000000    34.01000000
   C     57.44000000    -8.51000000    35.37000000
   O     58.15000000    -7.53000000    35.58000000
   C     57.36000000    -7.93000000    32.93000000
   C     58.78000000    -8.31000000    32.53000000
   O     58.97000000    -9.43000000    32.02000000
   O     59.69000000    -7.47000000    32.63000000
   H     54.87000000    -8.33000000    34.50000000
   H     57.29000000    -9.87000000    33.75000000
   H     57.18000000    -6.90000000    33.24000000
   H     56.82000000    -8.00000000    31.99000000
   N     56.96000000    -9.26000000    36.37000000
   C     57.58000000    -9.26000000    37.68000000
   C     57.55000000    -8.00000000    38.54000000
   O     58.58000000    -7.74000000    39.16000000
   C     56.93000000   -10.36000000    38.52000000
   C     57.49000000   -10.61000000    39.89000000
   C     58.31000000   -11.73000000    40.09000000
   C     57.16000000    -9.78000000    40.97000000
   C     58.80000000   -12.00000000    41.38000000
   C     57.58000000   -10.08000000    42.27000000
   C     58.48000000   -11.15000000    42.44000000
   H     56.39000000   -10.06000000    36.13000000
   H     58.62000000    -9.53000000    37.54000000
   H     57.04000000   -11.23000000    37.88000000
   H     55.85000000   -10.23000000    38.59000000
   H     58.59000000   -12.38000000    39.27000000
   H     56.47000000    -8.97000000    40.82000000
   H     59.36000000   -12.88000000    41.65000000
   H     57.17000000    -9.55000000    43.12000000
   H     58.84000000   -11.29000000    43.45000000
   N     56.45000000    -7.25000000    38.63000000
   C     55.17000000    -7.42000000    37.96000000
   C     54.94000000    -6.63000000    36.68000000
   O     54.14000000    -7.12000000    35.89000000
   C     54.10000000    -7.13000000    39.01000000
   C     54.82000000    -6.73000000    40.30000000
   C     56.21000000    -6.38000000    39.76000000
   H     55.09000000    -8.46000000    37.67000000
   H     53.50000000    -6.29000000    38.66000000
   H     53.50000000    -8.04000000    39.03000000
   H     54.41000000    -5.89000000    40.85000000
   H     54.96000000    -7.66000000    40.85000000
   H     56.15000000    -5.37000000    39.37000000
   H     56.93000000    -6.53000000    40.56000000
   N     55.66000000    -5.53000000    36.44000000
   C     55.26000000    -4.53000000    35.48000000
   C     56.27000000    -4.31000000    34.37000000
   O     57.48000000    -4.36000000    34.55000000
   C     55.02000000    -3.20000000    36.21000000
   C     53.90000000    -3.20000000    37.24000000
   C     53.82000000    -1.95000000    38.11000000
   O     53.74000000    -0.85000000    37.52000000
   O     53.76000000    -2.05000000    39.36000000
   H     56.31000000    -5.30000000    37.19000000
   H     54.29000000    -4.84000000    35.10000000
   H     54.85000000    -2.45000000    35.44000000
   H     55.91000000    -2.89000000    36.76000000
   H     54.05000000    -4.04000000    37.92000000
   H     52.93000000    -3.40000000    36.80000000
   N     55.71000000    -4.09000000    33.17000000
   C     56.30000000    -4.18000000    31.85000000
   H     57.31600000    -4.56600000    31.93200000
   H     55.70600000    -4.85200000    31.23100000
   H     56.32400000    -3.19000000    31.39400000
   H     54.76000000    -3.76000000    33.23000000
  Ca     60.16000000   -11.69400000    32.16000000
   O     57.55000000   -12.49400000    31.97000000
   H     57.12000000   -13.32400000    31.76000000
   H     56.83000000   -11.91400000    32.23000000
   O     62.52000000   -11.94400000    30.95000000
   H     63.06000000   -12.55400000    30.45000000
   H     63.14000000   -11.35400000    31.36000000
   O     59.86000000   -11.54400000    29.55000000
   H     59.82000000   -12.41400000    29.14000000
   H     60.37000000   -11.01400000    28.94000000
   O     61.61000000    -9.10400000    31.24000000
   H     62.15000000    -8.33400000    31.11000000
   H     60.75000000    -8.75400000    31.47000000
   O     61.04000000   -10.02400000    34.34000000
   H     61.75000000   -10.21400000    34.96000000
   H     61.15000000    -9.09400000    34.13000000
   O     61.81000000   -12.81400000    33.96000000
   H     62.58000000   -12.37400000    34.31000000
   H     61.97000000   -13.74400000    34.12000000
   O     59.05000000   -12.16400000    34.59000000
   H     59.65000000   -12.07400000    35.33000000
   H     58.33000000   -12.69400000    34.93000000

Ca 1.00



