%chk=loop3.apoCaM-CA-Ng.Init293.run94.water5.chk
%nprocshared=20
%mem=10GB
%nosave
#b3lyp/svp scf=(tight,noincore,xqc) Test 
#IOP(5/87=12) Density=Current Pop=(MK,readradii) iop(6/33=2) iop(6/42=6)

loop3.apoCaM-CA-Ng.Init293.run94.water5 

   0  1 
   C     98.54000000    73.61000000    23.53000000
   C     99.83000000    73.43000000    22.75000000
   O     99.94000000    73.82000000    21.59000000
   H     97.73500000    73.07200000    23.02900000
   H     98.66700000    73.21700000    24.53900000
   H     98.29100000    74.67000000    23.58100000
   N    100.84000000    72.89000000    23.43000000
   C    102.14000000    72.52000000    22.90000000
   C    103.22000000    72.60000000    23.96000000
   O    102.94000000    72.51000000    25.16000000
   C    102.09000000    71.16000000    22.21000000
   C    103.43000000    70.63000000    21.71000000
   O    104.27000000    71.37000000    21.15000000
   O    103.64000000    69.40000000    21.82000000
   H    100.73000000    72.63000000    24.40000000
   H    102.35000000    73.22000000    22.09000000
   H    101.39000000    71.13000000    21.37000000
   H    101.81000000    70.45000000    22.99000000
   N    104.44000000    72.92000000    23.55000000
   C    105.70000000    72.86000000    24.27000000
   C    106.05000000    71.54000000    24.94000000
   O    105.18000000    70.72000000    25.19000000
   C    105.62000000    74.09000000    25.18000000
   C    106.97000000    74.72000000    25.52000000
   C    106.99000000    75.26000000    26.95000000
   C    106.87000000    74.23000000    28.06000000
   N    107.95000000    73.23000000    28.04000000
   H    104.54000000    72.86000000    22.55000000
   H    106.57000000    73.09000000    23.65000000
   H    105.12000000    73.91000000    26.13000000
   H    105.03000000    74.87000000    24.69000000
   H    107.21000000    75.55000000    24.86000000
   H    107.73000000    73.94000000    25.44000000
   H    106.13000000    75.93000000    27.00000000
   H    107.83000000    75.91000000    27.19000000
   H    105.87000000    73.79000000    28.05000000
   H    107.05000000    74.70000000    29.03000000
   H    107.60000000    72.31000000    28.27000000
   H    108.25000000    73.04000000    27.10000000
   H    108.68000000    73.47000000    28.70000000
   N    107.35000000    71.24000000    24.98000000
   C    107.96000000    70.08000000    25.59000000
   C    107.65000000    69.93000000    27.08000000
   O    106.93000000    70.74000000    27.65000000
   C    109.47000000    69.91000000    25.39000000
   C    110.20000000    71.23000000    25.62000000
   O    109.66000000    72.09000000    26.34000000
   O    111.19000000    71.66000000    24.99000000
   H    107.97000000    71.84000000    24.45000000
   H    107.52000000    69.21000000    25.11000000
   H    109.70000000    69.54000000    24.39000000
   H    109.83000000    69.25000000    26.18000000
   N    107.88000000    68.75000000    27.66000000
   C    107.60000000    68.47000000    29.06000000
   C    108.75000000    68.88000000    29.96000000
   O    109.85000000    69.00000000    29.42000000
   H    108.36000000    68.05000000    27.12000000
   H    107.40000000    67.42000000    29.27000000
   H    106.71000000    69.06000000    29.28000000
   N    108.52000000    69.06000000    31.26000000
   C    109.47000000    69.49000000    32.26000000
   C    109.24000000    68.73000000    33.55000000
   O    108.91000000    69.29000000    34.60000000
   C    109.36000000    71.00000000    32.48000000
   C    109.50000000    71.88000000    31.25000000
   N    110.57000000    72.68000000    31.15000000
   O    108.60000000    71.95000000    30.42000000
   H    107.56000000    68.81000000    31.46000000
   H    110.51000000    69.38000000    31.94000000
   H    110.10000000    71.25000000    33.24000000
   H    108.35000000    71.19000000    32.85000000
   H    111.32000000    72.64000000    31.81000000
   H    110.70000000    73.17000000    30.27000000
   N    109.33000000    67.40000000    33.54000000
   C    108.85000000    66.51000000    34.58000000
   C    107.40000000    66.84000000    34.90000000
   O    106.60000000    67.16000000    34.02000000
   H    109.52000000    67.02000000    32.62000000
   H    109.47000000    66.44000000    35.47000000
   H    108.83000000    65.54000000    34.08000000
   N    107.11000000    66.79000000    36.20000000
   C    105.92000000    67.29000000    36.87000000
   C    105.60000000    68.75000000    36.62000000
   O    105.09000000    69.41000000    37.52000000
   C    104.68000000    66.41000000    36.76000000
   C    104.03000000    66.29000000    38.12000000
   C    104.30000000    65.16000000    38.89000000
   C    103.19000000    67.31000000    38.57000000
   C    103.73000000    65.12000000    40.17000000
   C    102.55000000    67.22000000    39.81000000
   C    102.78000000    66.07000000    40.60000000
   O    102.23000000    65.96000000    41.84000000
   H    107.80000000    66.42000000    36.84000000
   H    106.24000000    67.21000000    37.91000000
   H    105.17000000    65.45000000    36.61000000
   H    104.05000000    66.61000000    35.89000000
   H    104.90000000    64.38000000    38.45000000
   H    103.10000000    68.16000000    37.91000000
   H    104.02000000    64.35000000    40.86000000
   H    102.18000000    68.09000000    40.33000000
   H    101.50000000    66.58000000    41.89000000
   N    105.91000000    69.41000000    35.50000000
   C    105.85000000    70.79000000    35.06000000
   C    106.71000000    71.78000000    35.82000000
   O    107.39000000    72.61000000    35.22000000
   C    104.43000000    71.26000000    34.78000000
   C    103.71000000    70.33000000    33.81000000
   C    104.32000000    72.69000000    34.27000000
   C    104.24000000    70.40000000    32.38000000
   H    106.34000000    68.83000000    34.79000000
   H    106.34000000    70.86000000    34.09000000
   H    103.96000000    71.10000000    35.75000000
   H    102.64000000    70.51000000    33.81000000
   H    103.86000000    69.31000000    34.16000000
   H    103.33000000    72.99000000    33.93000000
   H    104.76000000    73.43000000    34.93000000
   H    104.88000000    72.82000000    33.34000000
   H    104.13000000    71.30000000    31.77000000
   H    105.33000000    70.29000000    32.30000000
   H    103.72000000    69.66000000    31.78000000
   N    106.66000000    71.74000000    37.16000000
   C    107.58000000    72.36000000    38.09000000
   C    107.70000000    73.88000000    38.07000000
   O    108.73000000    74.44000000    38.44000000
   C    107.24000000    71.82000000    39.47000000
   O    105.94000000    72.22000000    39.84000000
   H    106.01000000    71.04000000    37.48000000
   H    108.56000000    71.94000000    37.84000000
   H    107.88000000    72.22000000    40.26000000
   H    107.35000000    70.73000000    39.42000000
   H    105.52000000    71.62000000    40.46000000
   N    106.61000000    74.50000000    37.63000000
   C    106.29000000    75.88000000    37.32000000
   C    107.17000000    76.34000000    36.16000000
   O    107.44000000    77.54000000    36.13000000
   C    106.17000000    76.77000000    38.55000000
   H    105.85000000    73.84000000    37.58000000
   H    105.27000000    75.84000000    36.94000000
   H    105.71000000    77.73000000    38.31000000
   H    105.49000000    76.37000000    39.30000000
   H    107.18000000    76.84000000    38.94000000
   N    107.63000000    75.45000000    35.28000000
   C    108.64000000    75.87000000    34.33000000
   C    108.22000000    76.24000000    32.92000000
   O    107.31000000    75.65000000    32.33000000
   C    109.60000000    74.68000000    34.26000000
   H    107.45000000    74.45000000    35.27000000
   H    109.21000000    76.72000000    34.71000000
   H    109.90000000    74.39000000    35.26000000
   H    109.15000000    73.86000000    33.70000000
   H    110.46000000    75.07000000    33.72000000
   N    108.99000000    77.16000000    32.33000000
   C    108.63000000    77.81000000    31.08000000
   C    107.18000000    78.22000000    30.86000000
   O    106.57000000    78.03000000    29.82000000
   C    109.18000000    76.93000000    29.96000000
   C    110.66000000    76.60000000    30.05000000
   C    111.01000000    75.59000000    28.96000000
   O    110.53000000    74.44000000    28.90000000
   O    111.78000000    75.94000000    28.04000000
   H    109.75000000    77.56000000    32.86000000
   H    109.16000000    78.76000000    31.09000000
   H    108.96000000    77.33000000    28.97000000
   H    108.64000000    75.99000000    30.08000000
   H    110.93000000    76.16000000    31.01000000
   H    111.15000000    77.55000000    29.85000000
   N    106.55000000    78.73000000    31.92000000
   C    105.16000000    79.15000000    31.95000000
   H    104.55200000    78.36200000    32.39400000
   H    105.06700000    80.05900000    32.54500000
   H    104.81600000    79.34400000    30.93400000
   H    107.05000000    78.76000000    32.80000000
  Ca    112.07000000    73.40000000    26.93000000
   O    110.68000000    74.82000000    25.06000000
   H    110.07000000    74.77000000    24.32000000
   H    111.18000000    75.61000000    24.90000000
   O    113.73000000    73.42000000    29.17000000
   H    113.67000000    74.16000000    29.77000000
   H    114.01000000    72.69000000    29.72000000
   O    114.03000000    71.49000000    26.36000000
   H    113.98000000    70.60000000    26.02000000
   H    114.93000000    71.59000000    26.67000000
   O    114.11000000    74.52000000    25.56000000
   H    114.58000000    75.29000000    25.89000000
   H    114.66000000    74.19000000    24.85000000
   O    111.76000000    71.45000000    28.58000000
   H    111.18000000    70.69000000    28.60000000
   H    112.11000000    71.51000000    29.47000000

Ca 1.00



