%chk=loop3.apoCaM-CA-Ng.Init31.run53.water6.chk
%nprocshared=20
%mem=10GB
%nosave
#b3lyp/svp scf=(tight,noincore,xqc) Test 
#IOP(5/87=12) Density=Current Pop=(MK,readradii) iop(6/33=2) iop(6/42=6)

loop3.apoCaM-CA-Ng.Init31.run53.water6 

   0  1 
   C    102.42000000    51.44000000    26.95000000
   C    103.53000000    52.47000000    26.77000000
   O    103.43000000    53.35000000    25.92000000
   H    101.54000000    51.75300000    26.38900000
   H    102.75900000    50.47200000    26.58200000
   H    102.16600000    51.35900000    28.00700000
   N    104.47000000    52.49000000    27.72000000
   C    105.64000000    53.33000000    27.72000000
   C    106.90000000    52.51000000    27.47000000
   O    106.78000000    51.29000000    27.39000000
   C    105.65000000    53.92000000    29.13000000
   C    105.38000000    52.91000000    30.24000000
   O    104.22000000    52.55000000    30.53000000
   O    106.37000000    52.39000000    30.81000000
   H    104.41000000    51.81000000    28.47000000
   H    105.54000000    54.19000000    27.06000000
   H    104.86000000    54.67000000    29.10000000
   H    106.56000000    54.46000000    29.38000000
   N    108.12000000    53.04000000    27.39000000
   C    109.37000000    52.41000000    27.00000000
   C    109.53000000    52.11000000    25.52000000
   O    110.16000000    51.16000000    25.05000000
   C    110.51000000    53.33000000    27.45000000
   C    110.71000000    53.19000000    28.95000000
   C    111.84000000    54.10000000    29.43000000
   C    111.86000000    53.90000000    30.95000000
   N    111.00000000    54.78000000    31.76000000
   H    108.19000000    54.04000000    27.37000000
   H    109.43000000    51.46000000    27.53000000
   H    110.27000000    54.35000000    27.15000000
   H    111.44000000    52.98000000    27.00000000
   H    111.00000000    52.16000000    29.16000000
   H    109.82000000    53.42000000    29.53000000
   H    111.69000000    55.15000000    29.20000000
   H    112.75000000    53.72000000    28.97000000
   H    112.89000000    54.10000000    31.22000000
   H    111.62000000    52.87000000    31.21000000
   H    111.27000000    54.61000000    32.72000000
   H    111.12000000    55.77000000    31.64000000
   H    110.04000000    54.51000000    31.61000000
   N    108.73000000    52.84000000    24.74000000
   C    108.38000000    52.64000000    23.34000000
   C    108.09000000    53.92000000    22.58000000
   O    107.35000000    53.95000000    21.60000000
   C    107.32000000    51.56000000    23.15000000
   C    105.95000000    51.85000000    23.74000000
   O    105.06000000    50.99000000    23.57000000
   O    105.67000000    53.02000000    24.09000000
   H    108.16000000    53.54000000    25.20000000
   H    109.34000000    52.29000000    22.95000000
   H    107.77000000    50.65000000    23.56000000
   H    107.17000000    51.30000000    22.10000000
   N    108.80000000    54.99000000    22.94000000
   C    108.52000000    56.28000000    22.33000000
   C    107.28000000    56.92000000    22.93000000
   O    106.49000000    56.31000000    23.65000000
   H    109.59000000    54.88000000    23.56000000
   H    108.44000000    56.18000000    21.25000000
   H    109.42000000    56.89000000    22.42000000
   N    107.00000000    58.21000000    22.74000000
   C    107.77000000    59.16000000    21.97000000
   C    106.87000000    60.13000000    21.20000000
   O    106.06000000    60.82000000    21.81000000
   C    108.76000000    59.85000000    22.90000000
   C    108.08000000    60.78000000    23.90000000
   N    107.61000000    60.21000000    25.01000000
   O    108.03000000    62.01000000    23.81000000
   H    106.06000000    58.49000000    23.00000000
   H    108.41000000    58.62000000    21.27000000
   H    109.39000000    60.50000000    22.29000000
   H    109.36000000    59.15000000    23.47000000
   H    107.67000000    59.22000000    25.18000000
   H    107.48000000    60.69000000    25.89000000
   N    106.81000000    60.22000000    19.87000000
   C    107.64000000    59.53000000    18.92000000
   C    107.49000000    58.03000000    18.68000000
   O    107.12000000    57.37000000    19.65000000
   H    106.09000000    60.79000000    19.43000000
   H    108.72000000    59.64000000    19.03000000
   H    107.37000000    59.98000000    17.97000000
   N    107.81000000    57.46000000    17.51000000
   C    107.77000000    56.05000000    17.19000000
   C    109.01000000    55.57000000    16.46000000
   O    109.66000000    56.33000000    15.74000000
   C    106.60000000    55.86000000    16.23000000
   C    105.28000000    56.46000000    16.68000000
   C    104.59000000    55.98000000    17.80000000
   C    104.78000000    57.59000000    16.03000000
   C    103.45000000    56.63000000    18.28000000
   C    103.64000000    58.24000000    16.52000000
   C    102.90000000    57.74000000    17.61000000
   O    101.83000000    58.43000000    18.09000000
   H    108.25000000    58.12000000    16.89000000
   H    107.62000000    55.42000000    18.06000000
   H    106.44000000    54.80000000    16.03000000
   H    106.87000000    56.21000000    15.23000000
   H    105.04000000    55.14000000    18.32000000
   H    105.36000000    58.10000000    15.27000000
   H    102.98000000    56.28000000    19.18000000
   H    103.28000000    59.17000000    16.10000000
   H    101.71000000    59.16000000    17.48000000
   N    109.34000000    54.28000000    16.40000000
   C    110.38000000    53.71000000    15.57000000
   C    109.93000000    52.45000000    14.84000000
   O    110.83000000    51.82000000    14.29000000
   C    111.67000000    53.45000000    16.35000000
   C    112.29000000    54.73000000    16.90000000
   C    111.50000000    52.36000000    17.41000000
   C    113.69000000    54.62000000    17.49000000
   H    108.77000000    53.71000000    17.02000000
   H    110.57000000    54.34000000    14.70000000
   H    112.46000000    53.10000000    15.69000000
   H    111.55000000    55.26000000    17.49000000
   H    112.48000000    55.30000000    15.99000000
   H    112.39000000    52.14000000    18.01000000
   H    110.76000000    52.74000000    18.11000000
   H    111.12000000    51.44000000    16.99000000
   H    114.14000000    55.61000000    17.63000000
   H    113.62000000    54.22000000    18.50000000
   H    114.30000000    53.90000000    16.94000000
   N    108.66000000    52.03000000    14.85000000
   C    108.16000000    50.88000000    14.13000000
   C    108.20000000    49.57000000    14.90000000
   O    108.30000000    48.48000000    14.34000000
   C    106.77000000    51.19000000    13.58000000
   O    105.88000000    51.93000000    14.38000000
   H    108.02000000    52.54000000    15.44000000
   H    108.79000000    50.76000000    13.25000000
   H    106.24000000    50.24000000    13.47000000
   H    106.90000000    51.75000000    12.65000000
   H    105.84000000    51.53000000    15.26000000
   N    108.22000000    49.64000000    16.23000000
   C    108.57000000    48.52000000    17.09000000
   C    107.35000000    47.83000000    17.68000000
   O    107.36000000    47.51000000    18.87000000
   C    109.51000000    49.22000000    18.07000000
   H    107.82000000    50.46000000    16.66000000
   H    109.13000000    47.79000000    16.51000000
   H    110.39000000    49.72000000    17.67000000
   H    108.87000000    49.85000000    18.69000000
   H    109.83000000    48.40000000    18.71000000
   N    106.30000000    47.67000000    16.87000000
   C    104.99000000    47.23000000    17.33000000
   C    104.28000000    48.08000000    18.36000000
   O    103.40000000    47.66000000    19.10000000
   C    105.06000000    45.74000000    17.67000000
   H    106.41000000    47.85000000    15.88000000
   H    104.30000000    47.25000000    16.49000000
   H    105.60000000    45.12000000    16.96000000
   H    105.51000000    45.55000000    18.64000000
   H    104.03000000    45.39000000    17.75000000
   N    104.65000000    49.36000000    18.51000000
   C    104.23000000    50.28000000    19.54000000
   C    102.77000000    50.68000000    19.40000000
   O    102.15000000    51.12000000    20.37000000
   C    105.19000000    51.43000000    19.87000000
   C    105.51000000    52.46000000    18.80000000
   C    106.40000000    51.92000000    17.70000000
   O    105.87000000    51.09000000    16.92000000
   O    107.53000000    52.43000000    17.56000000
   H    105.33000000    49.74000000    17.87000000
   H    104.24000000    49.87000000    20.55000000
   H    106.16000000    50.98000000    20.06000000
   H    104.97000000    51.88000000    20.84000000
   H    106.06000000    53.27000000    19.28000000
   H    104.56000000    52.90000000    18.46000000
   N    102.28000000    50.60000000    18.16000000
   C    100.86000000    50.72000000    17.89000000
   H    100.35500000    51.11200000    18.77300000
   H    100.70500000    51.39900000    17.05100000
   H    100.45200000    49.73900000    17.64500000
   H    102.83000000    50.31000000    17.36000000
  Ca    104.03900000    54.90000000    23.78000000
   O    104.84900000    56.49000000    26.11000000
   H    105.31900000    56.56000000    26.95000000
   H    104.55900000    57.38000000    25.92000000
   O    103.77900000    57.43000000    23.19000000
   H    103.19900000    57.63000000    22.46000000
   H    103.59900000    58.10000000    23.84000000
   O    103.05900000    52.62000000    22.91000000
   H    102.42900000    52.24000000    22.30000000
   H    103.63900000    51.90000000    23.14000000
   O    102.28900000    55.34000000    21.71000000
   H    101.87900000    54.72000000    21.10000000
   H    101.89900000    56.18000000    21.48000000
   O    101.87900000    55.82000000    25.04000000
   H    101.11900000    55.32000000    25.34000000
   H    101.74900000    56.70000000    25.38000000
   O    105.12900000    55.26000000    21.32000000
   H    105.03900000    55.87000000    20.58000000
   H    106.01900000    54.94000000    21.25000000

Ca 1.00



