%chk=loop4.apoCaM-CA-Ng.Init293.run78.water3.chk
%nprocshared=20
%mem=10GB
%nosave
#b3lyp/svp scf=(tight,noincore,xqc) Test 
#IOP(5/87=12) Density=Current Pop=(MK,readradii) iop(6/33=2) iop(6/42=6)

loop4.apoCaM-CA-Ng.Init293.run78.water3 

   -3  1 
   C     48.23000000    92.80000000    67.91000000
   C     46.75000000    92.91000000    68.26000000
   O     45.96000000    93.44000000    67.47000000
   H     48.81600000    92.73600000    68.82700000
   H     48.39700000    91.90500000    67.31000000
   H     48.53700000    93.68000000    67.34400000
   N     46.35000000    92.52000000    69.47000000
   C     45.15000000    92.56000000    70.27000000
   C     43.78000000    92.26000000    69.68000000
   O     42.76000000    92.40000000    70.36000000
   C     45.11000000    93.84000000    71.11000000
   C     44.80000000    95.11000000    70.34000000
   O     44.19000000    95.12000000    69.25000000
   O     45.09000000    96.12000000    71.02000000
   H     47.08000000    92.03000000    69.98000000
   H     45.22000000    91.76000000    71.02000000
   H     46.04000000    93.85000000    71.68000000
   H     44.36000000    93.73000000    71.90000000
   N     43.78000000    91.67000000    68.49000000
   C     42.58000000    91.54000000    67.68000000
   C     41.94000000    92.86000000    67.25000000
   O     42.68000000    93.81000000    66.99000000
   C     42.93000000    90.66000000    66.48000000
   C     43.25000000    89.27000000    67.01000000
   C     44.12000000    91.24000000    65.72000000
   C     43.44000000    88.25000000    65.90000000
   H     44.66000000    91.72000000    68.01000000
   H     41.76000000    91.01000000    68.15000000
   H     42.03000000    90.66000000    65.87000000
   H     42.43000000    88.97000000    67.66000000
   H     44.22000000    89.36000000    67.50000000
   H     44.08000000    90.93000000    64.67000000
   H     44.06000000    92.32000000    65.78000000
   H     45.08000000    90.94000000    66.14000000
   H     43.40000000    87.22000000    66.25000000
   H     42.64000000    88.46000000    65.19000000
   H     44.40000000    88.45000000    65.42000000
   N     40.62000000    92.96000000    67.33000000
   C     39.84000000    94.03000000    66.74000000
   C     39.67000000    95.17000000    67.74000000
   O     39.59000000    95.02000000    68.95000000
   C     38.51000000    93.47000000    66.25000000
   C     37.77000000    92.75000000    67.36000000
   O     38.07000000    91.59000000    67.71000000
   O     36.80000000    93.28000000    67.96000000
   H     40.13000000    92.12000000    67.63000000
   H     40.32000000    94.46000000    65.86000000
   H     38.66000000    92.78000000    65.43000000
   H     37.86000000    94.26000000    65.86000000
   N     39.71000000    96.43000000    67.29000000
   C     39.67000000    96.83000000    65.90000000
   C     41.04000000    96.73000000    65.26000000
   O     42.08000000    96.85000000    65.91000000
   H     39.61000000    97.15000000    67.99000000
   H     39.36000000    97.87000000    65.79000000
   H     38.95000000    96.18000000    65.40000000
   N     41.19000000    96.56000000    63.94000000
   C     40.21000000    96.37000000    62.90000000
   C     40.70000000    95.44000000    61.79000000
   O     41.84000000    95.54000000    61.34000000
   C     39.88000000    97.68000000    62.18000000
   C     39.64000000    98.90000000    63.05000000
   O     40.32000000    99.92000000    62.79000000
   O     38.70000000    98.92000000    63.86000000
   H     42.15000000    96.29000000    63.75000000
   H     39.31000000    95.91000000    63.30000000
   H     39.00000000    97.54000000    61.56000000
   H     40.68000000    97.89000000    61.47000000
   N     39.84000000    94.60000000    61.21000000
   C     38.48000000    94.19000000    61.47000000
   C     38.24000000    92.69000000    61.45000000
   O     37.21000000    92.21000000    61.92000000
   H     40.23000000    94.08000000    60.44000000
   H     37.85000000    94.70000000    60.74000000
   H     38.08000000    94.42000000    62.46000000
   N     39.06000000    91.90000000    60.75000000
   C     39.05000000    90.45000000    60.75000000
   C     40.35000000    89.96000000    60.12000000
   O     40.89000000    90.57000000    59.20000000
   C     37.95000000    89.80000000    59.91000000
   C     37.77000000    90.22000000    58.46000000
   C     36.46000000    89.66000000    57.91000000
   N     35.30000000    90.23000000    58.25000000
   O     36.44000000    88.73000000    57.10000000
   H     39.80000000    92.34000000    60.23000000
   H     38.91000000    89.95000000    61.71000000
   H     37.05000000    89.91000000    60.51000000
   H     38.05000000    88.71000000    59.87000000
   H     38.61000000    89.82000000    57.88000000
   H     37.69000000    91.29000000    58.31000000
   H     35.25000000    90.82000000    59.06000000
   H     34.46000000    89.82000000    57.87000000
   N     40.91000000    88.84000000    60.59000000
   C     42.13000000    88.22000000    60.12000000
   C     43.32000000    89.09000000    60.50000000
   O     43.30000000    89.81000000    61.50000000
   C     42.41000000    86.80000000    60.61000000
   C     41.35000000    85.84000000    60.09000000
   C     42.49000000    86.69000000    62.13000000
   H     40.58000000    88.55000000    61.50000000
   H     42.06000000    88.18000000    59.04000000
   H     43.34000000    86.59000000    60.09000000
   H     41.37000000    85.87000000    59.00000000
   H     41.59000000    84.80000000    60.31000000
   H     40.42000000    86.21000000    60.54000000
   H     43.48000000    86.95000000    62.51000000
   H     41.82000000    87.38000000    62.64000000
   H     42.15000000    85.69000000    62.42000000
   N     44.39000000    88.93000000    59.71000000
   C     45.66000000    89.62000000    59.71000000
   C     45.62000000    90.92000000    58.93000000
   O     46.43000000    91.80000000    59.22000000
   C     46.77000000    88.72000000    59.18000000
   C     48.11000000    89.44000000    59.04000000
   N     48.55000000    89.49000000    57.78000000
   O     48.76000000    89.91000000    59.97000000
   H     44.26000000    88.37000000    58.89000000
   H     45.98000000    89.90000000    60.71000000
   H     46.50000000    88.27000000    58.22000000
   H     46.86000000    87.89000000    59.88000000
   H     48.09000000    88.99000000    57.03000000
   H     49.42000000    90.00000000    57.73000000
   N     44.68000000    91.14000000    58.00000000
   C     44.65000000    92.30000000    57.12000000
   C     44.27000000    93.52000000    57.93000000
   O     43.40000000    93.42000000    58.80000000
   C     43.57000000    92.04000000    56.08000000
   C     43.38000000    93.13000000    55.05000000
   C     44.35000000    93.50000000    54.11000000
   C     42.14000000    93.77000000    54.97000000
   C     44.14000000    94.46000000    53.11000000
   C     41.87000000    94.68000000    53.93000000
   C     42.84000000    94.97000000    52.95000000
   O     42.59000000    95.86000000    51.94000000
   H     44.00000000    90.41000000    57.82000000
   H     45.65000000    92.48000000    56.72000000
   H     42.60000000    91.77000000    56.51000000
   H     43.95000000    91.26000000    55.42000000
   H     45.33000000    93.05000000    54.13000000
   H     41.30000000    93.52000000    55.60000000
   H     44.91000000    94.70000000    52.40000000
   H     40.90000000    95.14000000    53.96000000
   H     43.31000000    95.88000000    51.31000000
   N     44.90000000    94.64000000    57.58000000
   C     45.06000000    95.93000000    58.22000000
   C     45.59000000    95.89000000    59.65000000
   O     45.84000000    96.96000000    60.21000000
   C     43.77000000    96.73000000    58.08000000
   C     43.41000000    96.93000000    56.61000000
   C     41.91000000    97.02000000    56.37000000
   O     41.08000000    96.19000000    56.80000000
   O     41.46000000    98.07000000    55.86000000
   H     45.55000000    94.55000000    56.81000000
   H     45.83000000    96.45000000    57.65000000
   H     43.86000000    97.73000000    58.52000000
   H     42.94000000    96.23000000    58.58000000
   H     43.74000000    96.10000000    55.99000000
   H     43.95000000    97.82000000    56.28000000
   N     45.80000000    94.77000000    60.34000000
   C     46.70000000    94.72000000    61.47000000
   C     48.17000000    94.71000000    61.10000000
   O     48.99000000    95.18000000    61.89000000
   C     46.36000000    93.44000000    62.23000000
   C     45.01000000    93.49000000    62.94000000
   C     44.83000000    94.54000000    64.04000000
   O     43.68000000    94.88000000    64.38000000
   O     45.77000000    95.05000000    64.68000000
   H     45.44000000    93.90000000    59.96000000
   H     46.55000000    95.61000000    62.08000000
   H     47.16000000    93.36000000    62.96000000
   H     46.33000000    92.58000000    61.57000000
   H     44.80000000    92.49000000    63.33000000
   H     44.30000000    93.77000000    62.16000000
   N     48.56000000    94.31000000    59.89000000
   C     49.74000000    94.74000000    59.18000000
   H     50.57500000    94.08700000    59.43500000
   H     49.55600000    94.69200000    58.10700000
   H     49.98200000    95.76500000    59.46300000
   H     47.82000000    93.88000000    59.36000000
  Ca     44.45000000    95.70000000    66.78000000
   O     46.85000000    96.47000000    67.61000000
   H     47.42000000    97.03000000    67.08000000
   H     47.44000000    96.08000000    68.26000000
   O     43.69000000    97.70000000    68.39000000
   H     42.92000000    98.26000000    68.50000000
   H     43.77000000    97.24000000    69.23000000
   O     44.95000000    98.07000000    65.28000000
   H     45.52000000    98.20000000    64.52000000
   H     44.09000000    98.37000000    64.99000000

Ca 1.00



