%chk=loop3.holoCaM-CaMKII.run33.water2.chk
%nprocshared=20
%mem=10GB
%nosave
#b3lyp/svp scf=(tight,noincore,xqc) Test 
#IOP(5/87=12) Density=Current Pop=(MK,readradii) iop(6/33=2) iop(6/42=6)

loop3.holoCaM-CaMKII.run33.water2 

   0  1 
   C     84.89000000    41.78000000    33.19000000
   C     85.22000000    40.80000000    34.31000000
   O     86.24000000    40.11000000    34.26000000
   H     84.04700000    42.40300000    33.49000000
   H     85.75600000    42.41200000    32.99200000
   H     84.62900000    41.22700000    32.28800000
   N     84.59000000    40.98000000    35.47000000
   C     84.81000000    40.18000000    36.66000000
   C     84.04000000    38.86000000    36.61000000
   O     82.97000000    38.72000000    37.20000000
   C     84.55000000    40.95000000    37.96000000
   C     84.96000000    40.14000000    39.18000000
   O     85.87000000    39.28000000    39.17000000
   O     84.34000000    40.45000000    40.22000000
   H     83.80000000    41.61000000    35.47000000
   H     85.88000000    39.99000000    36.58000000
   H     83.50000000    41.22000000    37.99000000
   H     85.14000000    41.85000000    37.78000000
   N     84.58000000    37.88000000    35.88000000
   C     83.85000000    36.70000000    35.47000000
   C     83.87000000    35.63000000    36.56000000
   O     83.06000000    34.71000000    36.55000000
   C     84.39000000    36.09000000    34.18000000
   C     84.21000000    36.98000000    32.96000000
   C     84.88000000    36.38000000    31.72000000
   C     84.73000000    37.39000000    30.58000000
   N     83.35000000    37.44000000    30.08000000
   H     85.47000000    38.05000000    35.44000000
   H     82.81000000    36.94000000    35.29000000
   H     84.09000000    35.05000000    34.03000000
   H     85.42000000    35.97000000    34.52000000
   H     84.76000000    37.91000000    33.13000000
   H     83.14000000    37.21000000    32.92000000
   H     84.45000000    35.40000000    31.54000000
   H     85.94000000    36.24000000    31.93000000
   H     85.37000000    37.06000000    29.76000000
   H     85.03000000    38.39000000    30.90000000
   H     83.07000000    36.51000000    29.78000000
   H     82.75000000    37.71000000    30.85000000
   H     83.19000000    38.13000000    29.36000000
   N     84.81000000    35.65000000    37.50000000
   C     84.81000000    34.90000000    38.74000000
   C     83.89000000    35.53000000    39.78000000
   O     83.32000000    34.85000000    40.63000000
   C     86.23000000    34.60000000    39.21000000
   C     87.06000000    35.88000000    39.17000000
   O     87.78000000    36.19000000    38.19000000
   O     87.22000000    36.53000000    40.22000000
   H     85.45000000    36.42000000    37.34000000
   H     84.33000000    33.95000000    38.51000000
   H     86.74000000    33.76000000    38.73000000
   H     86.07000000    34.30000000    40.24000000
   N     83.77000000    36.86000000    39.81000000
   C     82.89000000    37.53000000    40.75000000
   C     83.46000000    37.51000000    42.16000000
   O     82.89000000    36.90000000    43.05000000
   H     84.31000000    37.45000000    39.19000000
   H     81.99000000    36.91000000    40.78000000
   H     82.63000000    38.52000000    40.39000000
   N     84.57000000    38.23000000    42.34000000
   C     85.27000000    38.33000000    43.60000000
   C     85.32000000    39.80000000    44.03000000
   O     85.67000000    40.10000000    45.16000000
   C     86.60000000    37.61000000    43.39000000
   C     87.72000000    38.43000000    42.77000000
   N     88.79000000    38.65000000    43.53000000
   O     87.68000000    39.00000000    41.68000000
   H     84.97000000    38.64000000    41.51000000
   H     84.70000000    37.83000000    44.38000000
   H     86.43000000    36.72000000    42.79000000
   H     86.93000000    37.38000000    44.40000000
   H     88.89000000    38.30000000    44.47000000
   H     89.53000000    39.27000000    43.22000000
   N     84.75000000    40.68000000    43.20000000
   C     84.83000000    42.11000000    43.39000000
   C     85.96000000    42.82000000    42.65000000
   O     86.08000000    43.99000000    42.99000000
   H     84.26000000    40.33000000    42.39000000
   H     84.87000000    42.34000000    44.45000000
   H     83.90000000    42.46000000    42.93000000
   N     86.76000000    42.19000000    41.78000000
   C     87.98000000    42.78000000    41.28000000
   C     88.31000000    42.35000000    39.86000000
   O     88.08000000    41.21000000    39.47000000
   C     89.14000000    42.34000000    42.18000000
   C     89.18000000    42.85000000    43.60000000
   C     90.04000000    43.87000000    44.01000000
   C     88.45000000    42.17000000    44.58000000
   C     90.28000000    44.22000000    45.35000000
   C     88.69000000    42.45000000    45.93000000
   C     89.55000000    43.50000000    46.31000000
   O     89.57000000    43.87000000    47.63000000
   H     86.55000000    41.25000000    41.49000000
   H     87.95000000    43.87000000    41.32000000
   H     90.05000000    42.63000000    41.67000000
   H     89.17000000    41.25000000    42.19000000
   H     90.59000000    44.41000000    43.26000000
   H     87.74000000    41.38000000    44.35000000
   H     90.87000000    45.10000000    45.54000000
   H     88.29000000    41.91000000    46.78000000
   H     89.02000000    43.27000000    48.14000000
   N     89.01000000    43.22000000    39.11000000
   C     89.48000000    43.08000000    37.75000000
   C     91.00000000    43.17000000    37.74000000
   O     91.61000000    43.88000000    38.52000000
   C     88.77000000    44.09000000    36.85000000
   C     87.25000000    44.00000000    36.70000000
   C     89.49000000    44.26000000    35.51000000
   C     86.50000000    45.14000000    36.01000000
   H     88.97000000    44.15000000    39.48000000
   H     89.32000000    42.13000000    37.24000000
   H     88.82000000    45.04000000    37.37000000
   H     86.74000000    44.08000000    37.65000000
   H     86.98000000    43.13000000    36.10000000
   H     90.49000000    44.67000000    35.69000000
   H     89.58000000    43.37000000    34.90000000
   H     88.92000000    44.92000000    34.85000000
   H     86.87000000    46.04000000    36.50000000
   H     86.75000000    45.23000000    34.95000000
   H     85.43000000    45.11000000    36.20000000
   N     91.52000000    42.27000000    36.90000000
   C     92.95000000    42.16000000    36.65000000
   C     93.31000000    42.48000000    35.21000000
   O     92.43000000    42.78000000    34.41000000
   C     93.37000000    40.71000000    36.88000000
   O     92.96000000    39.83000000    35.86000000
   H     90.92000000    41.49000000    36.65000000
   H     93.48000000    42.85000000    37.30000000
   H     92.93000000    40.41000000    37.83000000
   H     94.45000000    40.64000000    37.02000000
   H     92.09000000    39.57000000    36.18000000
   N     94.58000000    42.62000000    34.84000000
   C     94.93000000    43.13000000    33.53000000
   C     94.38000000    42.28000000    32.40000000
   O     93.76000000    42.78000000    31.46000000
   C     96.44000000    43.32000000    33.41000000
   H     95.30000000    42.20000000    35.41000000
   H     94.39000000    44.07000000    33.40000000
   H     96.90000000    42.34000000    33.32000000
   H     96.68000000    43.88000000    32.51000000
   H     96.77000000    43.81000000    34.33000000
   N     94.47000000    40.95000000    32.57000000
   C     93.93000000    39.92000000    31.72000000
   C     92.41000000    39.95000000    31.63000000
   O     91.83000000    39.91000000    30.55000000
   C     94.45000000    38.55000000    32.16000000
   H     94.85000000    40.67000000    33.46000000
   H     94.27000000    39.99000000    30.69000000
   H     95.52000000    38.56000000    31.99000000
   H     94.13000000    38.32000000    33.18000000
   H     94.09000000    37.77000000    31.49000000
   N     91.73000000    40.34000000    32.71000000
   C     90.30000000    40.58000000    32.72000000
   C     89.85000000    41.88000000    32.06000000
   O     88.66000000    42.00000000    31.77000000
   C     89.62000000    40.60000000    34.09000000
   C     89.67000000    39.18000000    34.67000000
   C     89.34000000    39.17000000    36.16000000
   O     90.01000000    39.80000000    37.00000000
   O     88.30000000    38.57000000    36.49000000
   H     92.27000000    40.42000000    33.56000000
   H     89.78000000    39.75000000    32.24000000
   H     88.61000000    40.98000000    34.03000000
   H     90.09000000    41.26000000    34.82000000
   H     90.70000000    38.87000000    34.53000000
   H     88.91000000    38.65000000    34.09000000
   N     90.73000000    42.88000000    31.98000000
   C     90.46000000    44.02000000    31.13000000
   H     89.61400000    44.57900000    31.53100000
   H     91.33800000    44.66500000    31.09600000
   H     90.22300000    43.67500000    30.12300000
   H     91.59000000    42.70000000    32.47000000
  Ca     88.49000000    38.66000000    39.07000000
   O     90.59000000    40.04000000    40.22000000
   H     90.93000000    40.22000000    41.10000000
   H     91.18000000    40.51000000    39.63000000
   O     90.84000000    37.13000000    39.48000000
   H     91.21000000    36.32000000    39.13000000
   H     91.58000000    37.59000000    39.87000000

Ca 1.00



