%chk=loop4.holoCaM.run89.water1.chk
%nprocshared=20
%mem=10GB
%nosave
#b3lyp/svp scf=(tight,noincore,xqc) Test 
#IOP(5/87=12) Density=Current Pop=(MK,readradii) iop(6/33=2) iop(6/42=6)

loop4.holoCaM.run89.water1 

   -3  1 
   C     47.22000000    52.50000000    24.75000000
   C     48.61000000    53.07000000    24.50000000
   O     48.78000000    54.28000000    24.36000000
   H     46.51500000    52.94000000    24.04400000
   H     47.24100000    51.41800000    24.61600000
   H     46.90800000    52.73400000    25.76800000
   N     49.58000000    52.18000000    24.31000000
   C     50.94000000    52.32000000    23.84000000
   C     50.97000000    52.28000000    22.32000000
   O     50.22000000    51.56000000    21.67000000
   C     51.94000000    51.46000000    24.61000000
   C     53.40000000    51.62000000    24.25000000
   O     54.17000000    50.63000000    24.32000000
   O     53.85000000    52.73000000    23.89000000
   H     49.32000000    51.28000000    24.69000000
   H     51.27000000    53.34000000    24.05000000
   H     51.55000000    50.44000000    24.61000000
   H     51.80000000    51.63000000    25.68000000
   N     52.04000000    52.81000000    21.72000000
   C     52.42000000    52.80000000    20.32000000
   C     53.87000000    52.47000000    20.02000000
   O     54.34000000    51.87000000    19.06000000
   C     51.90000000    54.10000000    19.71000000
   C     51.64000000    53.96000000    18.21000000
   C     52.77000000    55.30000000    20.08000000
   C     50.74000000    52.85000000    17.66000000
   H     52.71000000    53.22000000    22.36000000
   H     51.94000000    51.94000000    19.85000000
   H     50.97000000    54.35000000    20.22000000
   H     52.63000000    53.79000000    17.79000000
   H     51.22000000    54.92000000    17.92000000
   H     52.23000000    56.15000000    19.67000000
   H     52.82000000    55.40000000    21.17000000
   H     53.77000000    55.33000000    19.64000000
   H     50.93000000    52.75000000    16.60000000
   H     50.99000000    51.87000000    18.09000000
   H     49.69000000    53.06000000    17.81000000
   N     54.80000000    52.95000000    20.86000000
   C     56.24000000    52.92000000    20.74000000
   C     56.93000000    51.70000000    21.34000000
   O     58.11000000    51.50000000    21.08000000
   C     56.74000000    54.30000000    21.16000000
   C     56.31000000    54.62000000    22.59000000
   O     55.24000000    55.22000000    22.80000000
   O     56.92000000    54.26000000    23.61000000
   H     54.50000000    53.56000000    21.61000000
   H     56.39000000    52.79000000    19.67000000
   H     56.37000000    55.06000000    20.47000000
   H     57.82000000    54.32000000    21.08000000
   N     56.26000000    50.89000000    22.17000000
   C     56.70000000    49.57000000    22.58000000
   C     57.45000000    49.53000000    23.90000000
   O     58.40000000    48.75000000    23.95000000
   H     55.34000000    51.17000000    22.47000000
   H     57.35000000    49.23000000    21.77000000
   H     55.87000000    48.87000000    22.63000000
   N     57.15000000    50.47000000    24.80000000
   C     57.64000000    50.47000000    26.16000000
   C     56.66000000    49.88000000    27.17000000
   O     56.99000000    49.69000000    28.34000000
   C     58.07000000    51.86000000    26.61000000
   C     56.91000000    52.85000000    26.51000000
   O     57.13000000    54.08000000    26.51000000
   O     55.71000000    52.52000000    26.38000000
   H     56.34000000    51.06000000    24.65000000
   H     58.50000000    49.79000000    26.14000000
   H     58.85000000    52.28000000    25.98000000
   H     58.36000000    51.83000000    27.66000000
   N     55.49000000    49.51000000    26.64000000
   C     54.35000000    49.07000000    27.42000000
   C     53.85000000    50.02000000    28.49000000
   O     53.13000000    49.53000000    29.36000000
   H     55.21000000    50.02000000    25.81000000
   H     54.38000000    47.99000000    27.56000000
   H     53.50000000    49.05000000    26.74000000
   N     54.20000000    51.31000000    28.49000000
   C     53.78000000    52.31000000    29.45000000
   C     53.35000000    53.60000000    28.77000000
   O     53.67000000    53.87000000    27.61000000
   C     54.95000000    52.59000000    30.39000000
   C     55.13000000    51.38000000    31.30000000
   C     55.97000000    51.51000000    32.57000000
   N     56.26000000    50.41000000    33.26000000
   O     56.26000000    52.59000000    33.07000000
   H     54.82000000    51.60000000    27.74000000
   H     52.98000000    51.92000000    30.07000000
   H     54.77000000    53.44000000    31.05000000
   H     55.93000000    52.68000000    29.92000000
   H     55.54000000    50.52000000    30.78000000
   H     54.13000000    51.02000000    31.57000000
   H     55.89000000    49.55000000    32.87000000
   H     56.82000000    50.43000000    34.11000000
   N     52.62000000    54.48000000    29.46000000
   C     52.21000000    55.81000000    29.07000000
   C     52.99000000    56.81000000    29.92000000
   O     53.13000000    56.62000000    31.13000000
   C     50.72000000    56.14000000    29.22000000
   C     49.99000000    55.37000000    28.12000000
   C     50.07000000    55.78000000    30.55000000
   H     52.41000000    54.24000000    30.42000000
   H     52.60000000    56.07000000    28.09000000
   H     50.50000000    57.19000000    29.06000000
   H     48.96000000    55.70000000    28.18000000
   H     50.41000000    55.59000000    27.14000000
   H     50.00000000    54.28000000    28.24000000
   H     50.60000000    56.30000000    31.35000000
   H     49.04000000    56.14000000    30.54000000
   H     49.98000000    54.70000000    30.67000000
   N     53.33000000    57.92000000    29.26000000
   C     53.69000000    59.16000000    29.92000000
   C     52.59000000    60.20000000    29.95000000
   O     51.45000000    60.00000000    29.53000000
   C     55.01000000    59.60000000    29.29000000
   C     54.85000000    60.34000000    27.97000000
   N     54.70000000    59.70000000    26.81000000
   O     54.83000000    61.57000000    27.99000000
   H     53.25000000    57.87000000    28.26000000
   H     53.99000000    58.94000000    30.95000000
   H     55.71000000    58.76000000    29.23000000
   H     55.48000000    60.33000000    29.94000000
   H     54.71000000    58.69000000    26.71000000
   H     54.76000000    60.27000000    25.98000000
   N     52.84000000    61.45000000    30.34000000
   C     51.97000000    62.61000000    30.43000000
   C     51.39000000    63.03000000    29.09000000
   O     50.21000000    63.38000000    29.02000000
   C     52.65000000    63.65000000    31.31000000
   C     54.15000000    63.69000000    31.16000000
   C     54.71000000    64.33000000    30.05000000
   C     55.00000000    63.17000000    32.15000000
   C     56.09000000    64.55000000    29.92000000
   C     56.39000000    63.32000000    32.01000000
   C     56.93000000    63.94000000    30.87000000
   O     58.28000000    64.11000000    30.72000000
   H     53.80000000    61.68000000    30.52000000
   H     51.08000000    62.30000000    30.99000000
   H     52.32000000    63.48000000    32.34000000
   H     52.34000000    64.65000000    31.01000000
   H     54.07000000    64.76000000    29.30000000
   H     54.62000000    62.58000000    32.96000000
   H     56.50000000    65.22000000    29.18000000
   H     57.00000000    62.77000000    32.72000000
   H     58.84000000    64.02000000    31.49000000
   N     52.10000000    62.92000000    27.97000000
   C     51.62000000    63.28000000    26.64000000
   C     50.81000000    62.15000000    26.03000000
   O     50.03000000    62.43000000    25.12000000
   C     52.78000000    63.61000000    25.71000000
   C     53.74000000    64.76000000    25.98000000
   C     54.94000000    64.85000000    25.05000000
   O     55.52000000    65.95000000    24.93000000
   O     55.43000000    63.83000000    24.51000000
   H     53.07000000    62.63000000    28.01000000
   H     51.00000000    64.17000000    26.73000000
   H     52.34000000    63.78000000    24.72000000
   H     53.39000000    62.71000000    25.57000000
   H     54.08000000    64.70000000    27.01000000
   H     53.21000000    65.71000000    25.88000000
   N     51.08000000    60.90000000    26.42000000
   C     50.21000000    59.83000000    26.01000000
   C     48.94000000    59.70000000    26.83000000
   O     47.88000000    59.26000000    26.39000000
   C     51.01000000    58.54000000    26.21000000
   C     52.09000000    58.33000000    25.15000000
   C     52.92000000    57.08000000    25.39000000
   O     54.01000000    57.17000000    26.01000000
   O     52.57000000    55.95000000    24.99000000
   H     51.79000000    60.66000000    27.10000000
   H     49.88000000    59.88000000    24.97000000
   H     50.34000000    57.69000000    26.11000000
   H     51.46000000    58.51000000    27.20000000
   H     52.74000000    59.20000000    25.29000000
   H     51.69000000    58.40000000    24.14000000
   N     48.96000000    60.32000000    28.01000000
   C     47.85000000    60.21000000    28.94000000
   H     46.96800000    59.84700000    28.41100000
   H     48.10900000    59.51100000    29.73500000
   H     47.63800000    61.18900000    29.37100000
   H     49.90000000    60.50000000    28.33000000
  Ca     54.84000000    54.63000000    25.31000000
   O     56.71000000    56.79000000    25.06000000
   H     57.21000000    56.37000000    24.36000000
   H     56.95000000    57.72000000    25.01000000

Ca 1.00



