%chk=loop1.holoCaM-CaMKII.run9.water2.chk
%nprocshared=20
%mem=10GB
%nosave
#b3lyp/svp scf=(tight,noincore,xqc) Test 
#IOP(5/87=12) Density=Current Pop=(MK,readradii) iop(6/33=2) iop(6/42=6)

loop1.holoCaM-CaMKII.run9.water2 

   0  1 
   C     84.18000000    72.02000000    31.40000000
   C     85.41000000    72.89000000    31.61000000
   O     86.30000000    72.86000000    30.77000000
   H     83.37000000    72.62800000    30.99800000
   H     84.41600000    71.22000000    30.69800000
   H     83.87200000    71.58900000    32.35300000
   N     85.59000000    73.70000000    32.67000000
   C     86.70000000    74.49000000    33.14000000
   C     87.73000000    73.60000000    33.82000000
   O     87.80000000    73.54000000    35.04000000
   C     86.05000000    75.46000000    34.12000000
   C     87.07000000    76.43000000    34.69000000
   O     86.80000000    76.73000000    35.88000000
   O     88.16000000    76.60000000    34.10000000
   H     84.79000000    73.66000000    33.28000000
   H     87.16000000    75.07000000    32.33000000
   H     85.65000000    74.90000000    34.96000000
   H     85.25000000    76.05000000    33.66000000
   N     88.51000000    72.89000000    33.00000000
   C     89.56000000    72.00000000    33.46000000
   C     90.82000000    72.72000000    33.93000000
   O     91.61000000    72.07000000    34.61000000
   C     90.01000000    71.20000000    32.24000000
   C     89.04000000    70.08000000    31.87000000
   C     89.54000000    69.23000000    30.71000000
   C     88.62000000    68.16000000    30.11000000
   N     89.25000000    67.45000000    28.99000000
   H     88.36000000    73.00000000    32.01000000
   H     89.24000000    71.28000000    34.21000000
   H     90.95000000    70.71000000    32.52000000
   H     90.21000000    71.78000000    31.35000000
   H     88.10000000    70.57000000    31.60000000
   H     88.90000000    69.49000000    32.77000000
   H     90.45000000    68.72000000    31.04000000
   H     89.85000000    69.91000000    29.92000000
   H     87.63000000    68.52000000    29.86000000
   H     88.41000000    67.41000000    30.88000000
   H     88.63000000    66.70000000    28.73000000
   H     89.45000000    68.02000000    28.18000000
   H     90.08000000    66.94000000    29.28000000
   N     91.01000000    74.01000000    33.64000000
   C     92.06000000    74.83000000    34.19000000
   C     91.69000000    75.79000000    35.31000000
   O     92.59000000    76.31000000    35.97000000
   C     92.74000000    75.63000000    33.08000000
   C     91.88000000    76.50000000    32.17000000
   O     92.45000000    77.18000000    31.29000000
   O     90.65000000    76.67000000    32.28000000
   H     90.42000000    74.37000000    32.90000000
   H     92.78000000    74.13000000    34.62000000
   H     93.27000000    74.91000000    32.45000000
   H     93.56000000    76.13000000    33.57000000
   N     90.40000000    75.83000000    35.65000000
   C     89.93000000    76.07000000    37.00000000
   C     89.92000000    77.53000000    37.42000000
   O     90.40000000    77.93000000    38.48000000
   H     89.75000000    75.75000000    34.87000000
   H     90.55000000    75.53000000    37.72000000
   H     88.94000000    75.64000000    37.15000000
   N     89.28000000    78.39000000    36.63000000
   C     89.16000000    79.81000000    36.88000000
   C     87.76000000    80.33000000    37.16000000
   O     87.49000000    81.50000000    37.41000000
   C     89.78000000    80.55000000    35.70000000
   C     89.23000000    80.08000000    34.36000000
   O     88.09000000    79.57000000    34.24000000
   O     89.98000000    80.13000000    33.36000000
   H     88.85000000    78.00000000    35.80000000
   H     89.71000000    80.01000000    37.80000000
   H     90.85000000    80.36000000    35.70000000
   H     89.55000000    81.61000000    35.84000000
   N     86.83000000    79.37000000    37.08000000
   C     85.41000000    79.62000000    37.08000000
   C     84.62000000    80.14000000    35.89000000
   O     83.51000000    80.62000000    36.10000000
   H     87.15000000    78.43000000    36.90000000
   H     85.26000000    80.20000000    37.99000000
   H     85.02000000    78.62000000    37.27000000
   N     85.25000000    80.16000000    34.71000000
   C     84.69000000    80.45000000    33.40000000
   C     85.02000000    79.45000000    32.31000000
   O     85.97000000    78.66000000    32.34000000
   C     85.19000000    81.82000000    32.95000000
   C     84.63000000    82.89000000    33.89000000
   O     86.58000000    81.98000000    32.84000000
   H     86.20000000    79.82000000    34.67000000
   H     83.62000000    80.40000000    33.63000000
   H     84.91000000    82.05000000    31.92000000
   H     87.00000000    81.37000000    33.45000000
   H     83.56000000    82.79000000    34.04000000
   H     85.08000000    82.77000000    34.88000000
   H     84.86000000    83.87000000    33.48000000
   N     84.07000000    79.45000000    31.38000000
   C     84.06000000    78.58000000    30.22000000
   C     83.86000000    79.29000000    28.89000000
   O     82.80000000    79.88000000    28.74000000
   C     83.00000000    77.50000000    30.43000000
   C     82.82000000    76.94000000    31.84000000
   C     83.30000000    76.33000000    29.50000000
   C     81.62000000    76.05000000    32.11000000
   H     83.31000000    80.10000000    31.53000000
   H     84.98000000    78.00000000    30.31000000
   H     82.05000000    77.95000000    30.15000000
   H     82.77000000    77.77000000    32.55000000
   H     83.69000000    76.33000000    32.10000000
   H     84.21000000    75.78000000    29.77000000
   H     82.47000000    75.62000000    29.52000000
   H     83.24000000    76.62000000    28.45000000
   H     81.66000000    75.75000000    33.16000000
   H     80.71000000    76.60000000    31.89000000
   H     81.84000000    75.20000000    31.46000000
   N     84.87000000    79.23000000    28.02000000
   C     84.86000000    79.62000000    26.62000000
   C     84.13000000    78.67000000    25.69000000
   O     83.85000000    77.51000000    25.99000000
   C     86.26000000    79.85000000    26.07000000
   C     87.18000000    80.72000000    26.93000000
   O     86.83000000    78.57000000    25.92000000
   H     85.61000000    78.58000000    28.25000000
   H     84.33000000    80.57000000    26.66000000
   H     86.11000000    80.26000000    25.07000000
   H     87.60000000    78.59000000    26.49000000
   H     86.73000000    81.71000000    26.91000000
   H     87.29000000    80.25000000    27.91000000
   H     88.17000000    80.74000000    26.49000000
   N     83.87000000    79.11000000    24.45000000
   C     83.62000000    78.29000000    23.28000000
   C     84.56000000    77.12000000    23.05000000
   O     84.00000000    76.06000000    22.80000000
   C     83.61000000    79.15000000    22.02000000
   C     82.37000000    80.03000000    21.86000000
   O     84.77000000    79.95000000    22.02000000
   H     84.17000000    80.04000000    24.23000000
   H     82.66000000    77.79000000    23.37000000
   H     83.60000000    78.49000000    21.15000000
   H     84.92000000    80.34000000    21.16000000
   H     81.44000000    79.53000000    22.10000000
   H     82.42000000    80.94000000    22.46000000
   H     82.40000000    80.31000000    20.81000000
   N     85.89000000    77.26000000    23.08000000
   C     86.80000000    76.14000000    22.95000000
   C     86.63000000    75.13000000    24.08000000
   O     86.58000000    73.94000000    23.79000000
   C     88.22000000    76.68000000    22.82000000
   C     89.23000000    75.77000000    22.14000000
   C     89.03000000    75.51000000    20.65000000
   C     88.63000000    76.75000000    19.85000000
   N     88.17000000    76.50000000    18.48000000
   H     86.20000000    78.22000000    23.11000000
   H     86.51000000    75.64000000    22.03000000
   H     88.57000000    76.83000000    23.84000000
   H     88.24000000    77.69000000    22.40000000
   H     89.14000000    74.82000000    22.67000000
   H     90.23000000    76.20000000    22.22000000
   H     88.23000000    74.78000000    20.53000000
   H     89.93000000    75.06000000    20.23000000
   H     89.46000000    77.46000000    19.83000000
   H     87.89000000    77.32000000    20.42000000
   H     88.73000000    75.96000000    17.85000000
   H     87.21000000    76.18000000    18.43000000
   H     88.04000000    77.40000000    18.03000000
   N     86.44000000    75.52000000    25.35000000
   C     86.23000000    74.69000000    26.52000000
   C     84.97000000    73.86000000    26.41000000
   O     84.88000000    72.78000000    26.99000000
   C     86.31000000    75.52000000    27.80000000
   C     87.79000000    75.77000000    28.07000000
   C     87.87000000    76.66000000    29.30000000
   O     87.57000000    77.85000000    29.12000000
   O     88.28000000    76.22000000    30.40000000
   H     86.51000000    76.51000000    25.53000000
   H     86.99000000    73.91000000    26.49000000
   H     85.92000000    75.01000000    28.67000000
   H     85.83000000    76.49000000    27.68000000
   H     88.25000000    76.26000000    27.21000000
   H     88.40000000    74.91000000    28.33000000
   N     83.97000000    74.33000000    25.66000000
   C     82.70000000    73.67000000    25.45000000
   H     81.96300000    74.39900000    25.11300000
   H     82.81400000    72.89400000    24.69300000
   H     82.36400000    73.22100000    26.38500000
   H     84.04000000    75.30000000    25.39000000
  Ca     88.53000000    78.22000000    32.07000000
   O     90.40000000    78.81000000    30.38000000
   H     90.79000000    79.63000000    30.07000000
   H     91.15000000    78.26000000    30.60000000
   O     88.35000000    80.90000000    30.84000000
   H     87.68000000    81.54000000    31.08000000
   H     89.17000000    81.39000000    30.90000000

Ca 1.00



