%chk=loop2.holoCaM.run72.water1.chk
%nprocshared=20
%mem=10GB
%nosave
#b3lyp/svp scf=(tight,noincore,xqc) Test 
#IOP(5/87=12) Density=Current Pop=(MK,readradii) iop(6/33=2) iop(6/42=6)

loop2.holoCaM.run72.water1 

   -2  1 
   C     64.15000000    60.76000000    17.88000000
   C     63.13000000    61.25000000    18.90000000
   O     63.50000000    61.60000000    20.02000000
   H     65.08500000    60.52300000    18.38700000
   H     63.76900000    59.86700000    17.38500000
   H     64.32700000    61.53900000    17.13900000
   N     61.84000000    61.13000000    18.61000000
   C     60.79000000    61.30000000    19.60000000
   C     60.97000000    60.16000000    20.60000000
   O     60.95000000    58.96000000    20.31000000
   C     59.46000000    61.44000000    18.87000000
   C     58.29000000    61.47000000    19.85000000
   O     57.14000000    61.35000000    19.38000000
   O     58.55000000    61.72000000    21.04000000
   H     61.56000000    60.91000000    17.66000000
   H     60.85000000    62.27000000    20.10000000
   H     59.45000000    60.62000000    18.15000000
   H     59.60000000    62.37000000    18.31000000
   N     60.99000000    60.59000000    21.86000000
   C     61.33000000    59.74000000    22.99000000
   C     60.19000000    59.53000000    23.97000000
   O     60.37000000    58.75000000    24.90000000
   C     62.59000000    60.33000000    23.62000000
   H     60.88000000    61.57000000    22.05000000
   H     61.49000000    58.73000000    22.61000000
   H     63.06000000    59.60000000    24.28000000
   H     63.32000000    60.60000000    22.86000000
   H     62.16000000    61.16000000    24.19000000
   N     59.04000000    60.15000000    23.69000000
   C     57.78000000    59.79000000    24.31000000
   C     56.93000000    58.86000000    23.46000000
   O     56.14000000    58.09000000    24.00000000
   C     56.98000000    61.05000000    24.60000000
   C     57.79000000    62.26000000    25.03000000
   O     58.09000000    62.47000000    26.23000000
   O     58.08000000    63.12000000    24.18000000
   H     59.10000000    60.90000000    23.02000000
   H     57.98000000    59.30000000    25.27000000
   H     56.22000000    60.88000000    25.37000000
   H     56.35000000    61.23000000    23.72000000
   N     57.02000000    58.97000000    22.13000000
   C     56.11000000    58.34000000    21.19000000
   C     54.80000000    59.11000000    21.10000000
   O     53.77000000    58.63000000    21.57000000
   H     57.78000000    59.53000000    21.77000000
   H     55.93000000    57.32000000    21.50000000
   H     56.65000000    58.32000000    20.24000000
   N     54.81000000    60.36000000    20.65000000
   C     53.73000000    61.33000000    20.63000000
   C     53.75000000    62.25000000    19.42000000
   O     52.92000000    63.15000000    19.26000000
   C     53.68000000    62.16000000    21.91000000
   C     54.65000000    63.32000000    22.02000000
   N     54.29000000    64.55000000    22.41000000
   O     55.81000000    63.01000000    21.76000000
   H     55.72000000    60.69000000    20.36000000
   H     52.79000000    60.79000000    20.56000000
   H     53.74000000    61.60000000    22.84000000
   H     52.71000000    62.66000000    21.94000000
   H     53.40000000    64.69000000    22.85000000
   H     54.90000000    65.36000000    22.38000000
   N     54.64000000    62.11000000    18.44000000
   C     54.60000000    62.65000000    17.09000000
   C     54.96000000    64.13000000    16.96000000
   O     54.66000000    64.72000000    15.92000000
   H     55.44000000    61.59000000    18.77000000
   H     53.61000000    62.59000000    16.65000000
   H     55.29000000    62.13000000    16.44000000
   N     55.65000000    64.70000000    17.94000000
   C     56.20000000    66.04000000    17.90000000
   C     57.54000000    66.13000000    18.61000000
   O     57.83000000    65.31000000    19.48000000
   C     55.36000000    67.18000000    18.47000000
   C     54.04000000    67.37000000    17.72000000
   O     55.00000000    67.06000000    19.83000000
   H     55.67000000    64.19000000    18.82000000
   H     56.51000000    66.29000000    16.89000000
   H     55.84000000    68.15000000    18.32000000
   H     54.12000000    67.38000000    20.01000000
   H     53.36000000    66.60000000    18.07000000
   H     53.66000000    68.32000000    18.12000000
   H     54.10000000    67.31000000    16.63000000
   N     58.38000000    67.09000000    18.20000000
   C     59.69000000    67.25000000    18.78000000
   C     59.63000000    68.29000000    19.90000000
   O     59.16000000    69.40000000    19.70000000
   C     60.72000000    67.57000000    17.71000000
   C     60.82000000    66.34000000    16.81000000
   C     62.11000000    67.98000000    18.20000000
   C     61.24000000    65.01000000    17.44000000
   H     58.21000000    67.76000000    17.46000000
   H     59.96000000    66.31000000    19.27000000
   H     60.27000000    68.38000000    17.13000000
   H     61.59000000    66.52000000    16.06000000
   H     59.86000000    66.16000000    16.33000000
   H     62.72000000    68.41000000    17.41000000
   H     62.03000000    68.75000000    18.97000000
   H     62.69000000    67.13000000    18.58000000
   H     62.13000000    65.12000000    18.05000000
   H     60.38000000    64.68000000    18.02000000
   H     61.55000000    64.33000000    16.65000000
   N     60.17000000    67.87000000    21.04000000
   C     60.61000000    68.76000000    22.09000000
   C     62.06000000    69.21000000    22.00000000
   O     62.87000000    68.53000000    21.38000000
   C     60.34000000    68.17000000    23.47000000
   C     59.04000000    67.38000000    23.52000000
   O     59.07000000    66.14000000    23.34000000
   O     58.06000000    68.06000000    23.90000000
   H     60.54000000    66.93000000    21.13000000
   H     59.98000000    69.66000000    22.02000000
   H     60.37000000    68.95000000    24.23000000
   H     61.12000000    67.46000000    23.76000000
   N     62.55000000    70.28000000    22.63000000
   C     63.91000000    70.73000000    22.46000000
   C     64.95000000    69.73000000    22.95000000
   O     65.97000000    69.57000000    22.28000000
   C     64.03000000    72.04000000    23.23000000
   C     65.37000000    72.74000000    23.29000000
   C     65.98000000    73.28000000    22.15000000
   C     65.98000000    72.81000000    24.55000000
   C     67.23000000    73.90000000    22.24000000
   C     67.26000000    73.38000000    24.62000000
   C     67.88000000    73.92000000    23.48000000
   H     61.93000000    70.82000000    23.22000000
   H     64.15000000    71.02000000    21.43000000
   H     63.59000000    71.94000000    24.22000000
   H     63.44000000    72.78000000    22.68000000
   H     65.40000000    73.21000000    21.24000000
   H     65.50000000    72.42000000    25.43000000
   H     67.71000000    74.38000000    21.41000000
   H     67.68000000    73.47000000    25.61000000
   H     68.81000000    74.45000000    23.61000000
   N     64.70000000    68.96000000    24.02000000
   C     65.60000000    67.87000000    24.33000000
   C     65.75000000    66.78000000    23.28000000
   O     66.80000000    66.14000000    23.33000000
   C     65.19000000    67.28000000    25.67000000
   C     64.43000000    68.47000000    26.27000000
   C     63.82000000    69.28000000    25.13000000
   H     66.56000000    68.37000000    24.50000000
   H     64.40000000    66.56000000    25.43000000
   H     66.03000000    67.02000000    26.31000000
   H     63.68000000    68.24000000    27.03000000
   H     65.16000000    69.03000000    26.85000000
   H     62.85000000    68.81000000    24.95000000
   H     63.82000000    70.32000000    25.43000000
   N     64.77000000    66.64000000    22.38000000
   C     64.85000000    65.70000000    21.29000000
   C     65.51000000    66.36000000    20.08000000
   O     66.24000000    65.68000000    19.37000000
   C     63.43000000    65.22000000    21.00000000
   C     62.66000000    64.61000000    22.17000000
   C     61.22000000    64.25000000    21.84000000
   O     60.58000000    64.90000000    20.98000000
   O     60.67000000    63.35000000    22.51000000
   H     64.10000000    67.40000000    22.36000000
   H     65.42000000    64.80000000    21.50000000
   H     63.47000000    64.51000000    20.18000000
   H     62.82000000    66.01000000    20.55000000
   H     62.76000000    65.21000000    23.07000000
   H     63.19000000    63.72000000    22.51000000
   N     65.32000000    67.67000000    19.96000000
   C     65.98000000    68.45000000    18.93000000
   H     66.98000000    68.05200000    18.75900000
   H     65.40400000    68.39400000    18.00600000
   H     66.05300000    69.48900000    19.25100000
   H     64.58000000    68.08000000    20.50000000
  Ca     58.25000000    64.13000000    21.87000000
   O     56.60000000    66.30000000    22.01000000
   H     56.09000000    66.83000000    21.40000000
   H     57.14000000    66.93000000    22.49000000

Ca 1.00



