%chk=loop1.holoCaM-CaMKII.run33.water2.chk
%nprocshared=20
%mem=10GB
%nosave
#b3lyp/svp scf=(tight,noincore,xqc) Test 
#IOP(5/87=12) Density=Current Pop=(MK,readradii) iop(6/33=2) iop(6/42=6)

loop1.holoCaM-CaMKII.run33.water2 

   0  1 
   C     82.50000000    49.80000000    17.38000000
   C     82.65000000    49.81000000    15.87000000
   O     82.28000000    48.87000000    15.17000000
   H     81.44300000    49.74400000    17.63900000
   H     83.02100000    48.93500000    17.79200000
   H     82.92700000    50.71300000    17.79400000
   N     83.09000000    50.94000000    15.30000000
   C     83.22000000    51.11000000    13.87000000
   C     84.61000000    50.65000000    13.45000000
   O     85.58000000    51.29000000    13.84000000
   C     82.92000000    52.59000000    13.62000000
   C     83.16000000    53.04000000    12.18000000
   O     83.23000000    54.26000000    11.92000000
   O     83.12000000    52.18000000    11.28000000
   H     83.22000000    51.77000000    15.85000000
   H     82.43000000    50.62000000    13.29000000
   H     83.47000000    53.17000000    14.36000000
   H     81.85000000    52.68000000    13.78000000
   N     84.68000000    49.44000000    12.90000000
   C     85.93000000    48.73000000    12.77000000
   C     86.79000000    49.23000000    11.62000000
   O     88.01000000    49.27000000    11.74000000
   C     85.69000000    47.22000000    12.64000000
   C     85.23000000    46.56000000    13.93000000
   C     86.44000000    46.36000000    14.84000000
   C     86.00000000    45.97000000    16.25000000
   N     85.13000000    46.83000000    17.08000000
   H     83.79000000    48.97000000    12.79000000
   H     86.59000000    48.75000000    13.64000000
   H     86.51000000    46.63000000    12.22000000
   H     84.96000000    46.99000000    11.86000000
   H     84.85000000    45.58000000    13.65000000
   H     84.38000000    47.14000000    14.29000000
   H     86.99000000    47.30000000    14.92000000
   H     87.02000000    45.53000000    14.42000000
   H     86.97000000    45.91000000    16.76000000
   H     85.54000000    45.00000000    16.11000000
   H     84.30000000    47.06000000    16.56000000
   H     84.92000000    46.26000000    17.88000000
   H     85.59000000    47.70000000    17.30000000
   N     86.13000000    49.55000000    10.50000000
   C     86.84000000    50.07000000     9.35000000
   C     86.85000000    51.59000000     9.36000000
   O     87.51000000    52.17000000     8.51000000
   C     86.25000000    49.55000000     8.04000000
   C     84.74000000    49.69000000     7.86000000
   O     84.14000000    50.28000000     8.79000000
   O     84.12000000    49.17000000     6.91000000
   H     85.13000000    49.70000000    10.54000000
   H     87.87000000    49.72000000     9.43000000
   H     86.48000000    48.49000000     8.14000000
   H     86.79000000    49.91000000     7.16000000
   N     86.29000000    52.26000000    10.38000000
   C     86.42000000    53.69000000    10.58000000
   C     85.71000000    54.64000000     9.63000000
   O     86.18000000    55.77000000     9.49000000
   H     85.97000000    51.71000000    11.16000000
   H     87.45000000    54.01000000    10.40000000
   H     86.10000000    53.87000000    11.60000000
   N     84.70000000    54.17000000     8.90000000
   C     84.06000000    54.95000000     7.86000000
   C     83.10000000    56.04000000     8.33000000
   O     82.65000000    56.80000000     7.47000000
   C     83.52000000    53.99000000     6.80000000
   C     82.34000000    53.08000000     7.09000000
   O     81.95000000    53.12000000     8.28000000
   O     81.97000000    52.18000000     6.30000000
   H     84.47000000    53.21000000     9.10000000
   H     84.80000000    55.55000000     7.34000000
   H     84.24000000    53.36000000     6.27000000
   H     83.30000000    54.73000000     6.02000000
   N     82.83000000    56.02000000     9.64000000
   C     81.90000000    56.96000000    10.22000000
   C     80.50000000    56.41000000    10.46000000
   O     79.66000000    57.21000000    10.86000000
   H     83.12000000    55.14000000    10.05000000
   H     81.69000000    57.73000000     9.48000000
   H     82.23000000    57.50000000    11.11000000
   N     80.26000000    55.10000000    10.36000000
   C     79.01000000    54.40000000    10.62000000
   C     79.16000000    53.02000000    11.24000000
   O     80.14000000    52.34000000    10.93000000
   C     78.18000000    54.22000000     9.35000000
   C     77.34000000    55.46000000     9.08000000
   O     79.04000000    54.03000000     8.25000000
   H     80.98000000    54.46000000    10.07000000
   H     78.46000000    54.97000000    11.37000000
   H     77.49000000    53.39000000     9.49000000
   H     79.84000000    53.56000000     8.50000000
   H     76.78000000    55.27000000     8.17000000
   H     76.51000000    55.64000000     9.76000000
   H     78.01000000    56.32000000     8.97000000
   N     78.31000000    52.67000000    12.21000000
   C     78.25000000    51.32000000    12.73000000
   C     77.17000000    50.50000000    12.03000000
   O     76.05000000    50.98000000    11.81000000
   C     78.03000000    51.31000000    14.24000000
   C     78.88000000    52.33000000    15.00000000
   C     78.14000000    49.90000000    14.81000000
   C     78.29000000    52.74000000    16.35000000
   H     77.70000000    53.40000000    12.56000000
   H     79.22000000    50.83000000    12.68000000
   H     77.00000000    51.66000000    14.30000000
   H     79.00000000    53.23000000    14.39000000
   H     79.88000000    51.91000000    15.07000000
   H     79.22000000    49.71000000    14.79000000
   H     77.80000000    49.70000000    15.82000000
   H     77.60000000    49.19000000    14.19000000
   H     77.96000000    51.90000000    16.96000000
   H     78.93000000    53.30000000    17.03000000
   H     77.48000000    53.44000000    16.17000000
   N     77.48000000    49.23000000    11.76000000
   C     76.61000000    48.25000000    11.14000000
   C     76.06000000    47.14000000    12.02000000
   O     76.66000000    46.86000000    13.06000000
   C     77.41000000    47.61000000    10.01000000
   C     77.80000000    48.64000000     8.95000000
   O     78.64000000    47.04000000    10.42000000
   H     78.42000000    48.93000000    11.94000000
   H     75.78000000    48.74000000    10.63000000
   H     76.81000000    46.79000000     9.63000000
   H     79.29000000    47.73000000    10.52000000
   H     78.44000000    48.14000000     8.22000000
   H     76.99000000    49.19000000     8.46000000
   H     78.41000000    49.38000000     9.47000000
   N     75.08000000    46.40000000    11.49000000
   C     74.59000000    45.17000000    12.07000000
   C     75.69000000    44.16000000    12.31000000
   O     75.64000000    43.44000000    13.31000000
   C     73.47000000    44.59000000    11.21000000
   C     72.16000000    45.30000000    11.52000000
   O     73.80000000    44.64000000     9.84000000
   H     74.62000000    46.79000000    10.68000000
   H     74.23000000    45.40000000    13.08000000
   H     73.27000000    43.56000000    11.51000000
   H     73.04000000    44.30000000     9.36000000
   H     71.86000000    45.19000000    12.56000000
   H     72.22000000    46.39000000    11.47000000
   H     71.37000000    45.01000000    10.83000000
   N     76.67000000    44.09000000    11.40000000
   C     77.84000000    43.25000000    11.52000000
   C     78.79000000    43.76000000    12.60000000
   O     79.22000000    42.98000000    13.45000000
   C     78.59000000    43.25000000    10.19000000
   C     79.82000000    42.33000000    10.24000000
   C     80.59000000    42.35000000     8.93000000
   C     81.78000000    41.39000000     8.91000000
   N     82.68000000    41.58000000     7.77000000
   H     76.61000000    44.78000000    10.67000000
   H     77.50000000    42.26000000    11.83000000
   H     78.93000000    44.24000000     9.88000000
   H     78.03000000    42.84000000     9.35000000
   H     79.47000000    41.35000000    10.55000000
   H     80.56000000    42.61000000    10.99000000
   H     80.93000000    43.37000000     8.78000000
   H     79.99000000    42.05000000     8.06000000
   H     81.42000000    40.38000000     9.08000000
   H     82.19000000    41.52000000     9.91000000
   H     83.60000000    41.20000000     7.96000000
   H     82.17000000    41.14000000     7.02000000
   H     82.77000000    42.54000000     7.47000000
   N     79.02000000    45.07000000    12.67000000
   C     79.94000000    45.53000000    13.69000000
   C     79.40000000    45.31000000    15.10000000
   O     80.14000000    44.94000000    16.01000000
   C     80.34000000    46.97000000    13.43000000
   C     81.42000000    47.11000000    12.37000000
   C     81.42000000    48.40000000    11.56000000
   O     80.38000000    48.97000000    11.18000000
   O     82.49000000    48.93000000    11.21000000
   H     78.57000000    45.70000000    12.01000000
   H     80.82000000    44.89000000    13.65000000
   H     80.66000000    47.39000000    14.39000000
   H     79.49000000    47.61000000    13.19000000
   H     81.28000000    46.24000000    11.73000000
   H     82.41000000    47.06000000    12.82000000
   N     78.10000000    45.54000000    15.26000000
   C     77.35000000    45.41000000    16.49000000
   H     76.35700000    45.02000000    16.27000000
   H     77.86800000    44.72500000    17.16200000
   H     77.25900000    46.38700000    16.96500000
   H     77.67000000    46.13000000    14.55000000
  Ca     81.80000000    50.84000000     9.60000000
   O     79.87000000    51.20000000     7.84000000
   H     80.44000000    51.57000000     7.16000000
   H     79.14000000    50.83000000     7.36000000
   O     81.69000000    48.77000000     7.90000000
   H     81.70000000    47.82000000     7.78000000
   H     82.54000000    49.06000000     7.56000000

Ca 1.00



