%chk=loop2.apoCaM-CA-Ng.Init293.run36.water7.chk
%nprocshared=20
%mem=10GB
%nosave
#b3lyp/svp scf=(tight,noincore,xqc) Test 
#IOP(5/87=12) Density=Current Pop=(MK,readradii) iop(6/33=2) iop(6/42=6)

loop2.apoCaM-CA-Ng.Init293.run36.water7 

   -2  1 
   C     49.63000000    70.62000000   117.87000000
   C     49.60000000    70.50000000   119.39000000
   O     49.86000000    71.52000000   120.02000000
   H     50.44000000    71.28600000   117.57500000
   H     49.79100000    69.63600000   117.43000000
   H     48.68100000    71.02500000   117.51800000
   N     49.30000000    69.35000000   120.00000000
   C     49.23000000    69.12000000   121.43000000
   C     50.56000000    69.22000000   122.16000000
   O     50.61000000    69.62000000   123.32000000
   C     48.67000000    67.72000000   121.65000000
   C     48.51000000    67.44000000   123.14000000
   O     47.52000000    68.00000000   123.65000000
   O     49.15000000    66.54000000   123.71000000
   H     49.04000000    68.58000000   119.40000000
   H     48.58000000    69.79000000   122.00000000
   H     49.42000000    67.00000000   121.30000000
   H     47.71000000    67.59000000   121.14000000
   N     51.65000000    68.88000000   121.47000000
   C     53.01000000    68.97000000   121.96000000
   C     53.24000000    70.39000000   122.47000000
   O     53.72000000    70.61000000   123.58000000
   C     53.33000000    67.87000000   122.97000000
   H     51.49000000    68.54000000   120.53000000
   H     53.69000000    68.79000000   121.13000000
   H     53.20000000    66.87000000   122.55000000
   H     54.28000000    68.05000000   123.47000000
   H     52.62000000    67.95000000   123.79000000
   N     53.21000000    71.37000000   121.57000000
   C     53.77000000    72.70000000   121.77000000
   C     53.28000000    73.40000000   123.02000000
   O     53.99000000    74.04000000   123.79000000
   C     55.30000000    72.71000000   121.80000000
   C     55.92000000    71.93000000   120.66000000
   O     55.31000000    71.87000000   119.56000000
   O     57.08000000    71.50000000   120.79000000
   H     52.78000000    71.14000000   120.69000000
   H     53.42000000    73.36000000   120.97000000
   H     55.60000000    72.39000000   122.80000000
   H     55.71000000    73.72000000   121.72000000
   N     51.95000000    73.28000000   123.15000000
   C     51.25000000    73.77000000   124.32000000
   C     51.08000000    75.28000000   124.47000000
   O     50.74000000    75.92000000   123.48000000
   H     51.46000000    72.70000000   122.49000000
   H     51.74000000    73.48000000   125.25000000
   H     50.30000000    73.25000000   124.38000000
   N     51.20000000    75.86000000   125.67000000
   C     50.95000000    77.24000000   126.02000000
   C     49.67000000    77.88000000   125.51000000
   O     49.59000000    79.10000000   125.39000000
   C     52.16000000    78.12000000   125.71000000
   C     53.41000000    77.67000000   126.45000000
   N     54.36000000    76.97000000   125.82000000
   O     53.58000000    77.92000000   127.64000000
   H     51.40000000    75.26000000   126.46000000
   H     50.74000000    77.13000000   127.09000000
   H     52.01000000    79.16000000   125.98000000
   H     52.29000000    78.14000000   124.63000000
   H     54.30000000    76.65000000   124.86000000
   H     55.24000000    76.90000000   126.30000000
   N     48.60000000    77.10000000   125.32000000
   C     47.37000000    77.56000000   124.71000000
   C     46.98000000    76.99000000   123.35000000
   O     45.77000000    76.98000000   123.13000000
   H     48.65000000    76.12000000   125.57000000
   H     47.46000000    78.62000000   124.48000000
   H     46.54000000    77.42000000   125.40000000
   N     47.89000000    76.48000000   122.53000000
   C     47.56000000    75.67000000   121.37000000
   C     47.92000000    76.39000000   120.08000000
   O     48.84000000    77.21000000   120.06000000
   C     48.26000000    74.32000000   121.56000000
   C     48.07000000    73.55000000   122.86000000
   O     47.88000000    73.43000000   120.54000000
   H     48.87000000    76.65000000   122.73000000
   H     46.48000000    75.51000000   121.33000000
   H     49.34000000    74.42000000   121.43000000
   H     48.50000000    72.71000000   120.59000000
   H     48.30000000    74.09000000   123.78000000
   H     47.03000000    73.23000000   122.96000000
   H     48.71000000    72.68000000   122.99000000
   N     47.22000000    76.12000000   118.97000000
   C     47.64000000    76.60000000   117.67000000
   C     48.99000000    75.99000000   117.33000000
   O     49.29000000    74.99000000   117.97000000
   C     46.55000000    76.45000000   116.61000000
   C     46.10000000    74.99000000   116.60000000
   C     45.41000000    77.41000000   116.96000000
   C     45.32000000    74.72000000   115.31000000
   H     46.53000000    75.38000000   118.99000000
   H     47.81000000    77.65000000   117.86000000
   H     46.96000000    76.83000000   115.67000000
   H     45.37000000    74.90000000   117.41000000
   H     46.99000000    74.37000000   116.67000000
   H     44.75000000    77.53000000   116.10000000
   H     44.82000000    77.10000000   117.82000000
   H     45.78000000    78.39000000   117.27000000
   H     45.93000000    75.15000000   114.52000000
   H     45.03000000    73.67000000   115.21000000
   H     44.43000000    75.34000000   115.32000000
   N     49.73000000    76.43000000   116.31000000
   C     51.03000000    75.92000000   115.93000000
   C     52.19000000    76.51000000   116.72000000
   O     53.31000000    76.55000000   116.22000000
   C     51.10000000    75.82000000   114.41000000
   C     52.05000000    74.74000000   113.92000000
   O     52.09000000    74.41000000   112.71000000
   O     52.78000000    74.08000000   114.70000000
   H     49.34000000    77.08000000   115.64000000
   H     51.06000000    74.87000000   116.24000000
   H     51.52000000    76.76000000   114.03000000
   H     50.13000000    75.75000000   113.93000000
   N     51.93000000    76.95000000   117.95000000
   C     52.91000000    77.57000000   118.82000000
   C     53.02000000    79.08000000   118.60000000
   O     54.14000000    79.60000000   118.62000000
   C     52.54000000    77.31000000   120.27000000
   C     53.43000000    77.95000000   121.32000000
   C     52.96000000    79.10000000   121.98000000
   C     54.64000000    77.35000000   121.67000000
   C     53.79000000    79.75000000   122.89000000
   C     55.45000000    78.02000000   122.59000000
   C     55.01000000    79.17000000   123.26000000
   H     51.11000000    76.68000000   118.48000000
   H     53.87000000    77.08000000   118.65000000
   H     52.79000000    76.26000000   120.47000000
   H     51.47000000    77.47000000   120.37000000
   H     51.97000000    79.48000000   121.78000000
   H     55.00000000    76.53000000   121.06000000
   H     53.27000000    80.48000000   123.48000000
   H     56.36000000    77.55000000   122.92000000
   H     55.56000000    79.58000000   124.10000000
   N     51.96000000    79.84000000   118.33000000
   C     50.54000000    79.56000000   118.32000000
   C     49.91000000    79.59000000   116.94000000
   O     48.74000000    79.94000000   116.80000000
   C     50.01000000    80.70000000   119.19000000
   C     50.76000000    81.90000000   118.64000000
   C     52.09000000    81.28000000   118.25000000
   H     50.28000000    78.59000000   118.75000000
   H     48.94000000    80.92000000   119.14000000
   H     50.35000000    80.62000000   120.22000000
   H     50.25000000    82.24000000   117.73000000
   H     50.79000000    82.75000000   119.33000000
   H     52.25000000    81.55000000   117.20000000
   H     52.85000000    81.65000000   118.94000000
   N     50.68000000    79.55000000   115.85000000
   C     50.34000000    79.98000000   114.51000000
   C     49.23000000    79.28000000   113.74000000
   O     49.36000000    78.08000000   113.55000000
   C     51.58000000    80.27000000   113.66000000
   C     51.40000000    80.78000000   112.24000000
   C     50.85000000    82.19000000   112.40000000
   O     49.64000000    82.31000000   112.71000000
   O     51.64000000    83.13000000   112.19000000
   H     51.67000000    79.45000000   116.06000000
   H     49.99000000    80.97000000   114.78000000
   H     52.21000000    79.38000000   113.65000000
   H     52.10000000    80.99000000   114.30000000
   H     50.70000000    80.12000000   111.72000000
   H     52.34000000    80.70000000   111.70000000
   N     48.20000000    79.97000000   113.25000000
   C     47.02000000    79.46000000   112.58000000
   H     46.23300000    80.21300000   112.60800000
   H     47.26200000    79.22700000   111.54300000
   H     46.67600000    78.55700000   113.08500000
   H     48.12000000    80.96000000   113.47000000
  Ca     55.28000000    74.79000000   115.74600000
   O     54.86000000    75.95000000   113.36600000
   H     55.57000000    76.53000000   113.08600000
   H     54.44000000    75.67000000   112.55600000
   O     55.52000000    72.11000000   114.89600000
   H     55.99000000    71.41000000   115.35600000
   H     54.63000000    71.76000000   114.77600000
   O     56.73000000    75.83000000   117.83600000
   H     57.43000000    75.35000000   118.26600000
   H     56.85000000    76.74000000   118.12600000
   O     57.81000000    74.53000000   114.69600000
   H     58.54000000    75.08000000   114.39600000
   H     58.22000000    73.68000000   114.86600000
   O     56.49000000    72.80000000   117.43600000
   H     55.90000000    72.16000000   117.81600000
   H     57.37000000    72.48000000   117.63600000
   O     56.52000000    77.11000000   115.53600000
   H     57.18000000    77.50000000   116.10600000
   H     56.46000000    77.71000000   114.78600000
   O     54.01000000    74.38000000   118.35600000
   H     54.48000000    73.75000000   118.91600000
   H     53.12000000    74.39000000   118.72600000

Ca 1.00



