%chk=loop1.apoCaM-CA-Ng.Init31.run39.water4.chk
%nprocshared=20
%mem=10GB
%nosave
#b3lyp/svp scf=(tight,noincore,xqc) Test 
#IOP(5/87=12) Density=Current Pop=(MK,readradii) iop(6/33=2) iop(6/42=6)

loop1.apoCaM-CA-Ng.Init31.run39.water4 

   0  1 
   C     91.51000000    80.39000000     2.45000000
   C     91.76000000    81.47000000     1.41000000
   O     92.48000000    82.41000000     1.73000000
   H     90.48800000    80.02400000     2.35400000
   H     92.20600000    79.56600000     2.29400000
   H     91.65500000    80.80500000     3.44800000
   N     91.28000000    81.34000000     0.17000000
   C     91.55000000    82.14000000    -1.01000000
   C     90.30000000    82.31000000    -1.87000000
   O     89.32000000    81.62000000    -1.61000000
   C     92.79000000    81.56000000    -1.69000000
   C     93.38000000    82.56000000    -2.66000000
   O     92.94000000    83.72000000    -2.77000000
   O     94.20000000    82.14000000    -3.51000000
   H     90.71000000    80.53000000    -0.02000000
   H     91.87000000    83.14000000    -0.73000000
   H     92.64000000    80.65000000    -2.28000000
   H     93.49000000    81.32000000    -0.89000000
   N     90.27000000    83.22000000    -2.85000000
   C     89.25000000    83.36000000    -3.86000000
   C     88.94000000    82.11000000    -4.67000000
   O     87.76000000    81.76000000    -4.74000000
   C     89.47000000    84.52000000    -4.83000000
   C     89.38000000    85.88000000    -4.15000000
   C     89.30000000    86.99000000    -5.19000000
   C     89.15000000    88.27000000    -4.37000000
   N     89.06000000    89.49000000    -5.19000000
   H     91.13000000    83.74000000    -2.97000000
   H     88.40000000    83.66000000    -3.25000000
   H     88.74000000    84.49000000    -5.64000000
   H     90.44000000    84.40000000    -5.31000000
   H     90.27000000    85.97000000    -3.53000000
   H     88.46000000    85.94000000    -3.56000000
   H     88.42000000    86.77000000    -5.80000000
   H     90.15000000    86.83000000    -5.86000000
   H     90.04000000    88.23000000    -3.74000000
   H     88.33000000    88.24000000    -3.65000000
   H     89.85000000    89.63000000    -5.79000000
   H     88.22000000    89.45000000    -5.76000000
   H     89.10000000    90.34000000    -4.64000000
   N     89.83000000    81.36000000    -5.32000000
   C     91.28000000    81.40000000    -5.46000000
   C     91.85000000    80.00000000    -5.26000000
   O     91.13000000    79.01000000    -5.31000000
   C     91.80000000    82.08000000    -6.72000000
   C     93.08000000    82.84000000    -6.37000000
   O     94.18000000    82.25000000    -6.37000000
   O     93.06000000    84.04000000    -6.03000000
   H     89.42000000    80.46000000    -5.52000000
   H     91.73000000    81.99000000    -4.66000000
   H     91.07000000    82.74000000    -7.17000000
   H     92.02000000    81.28000000    -7.43000000
   N     93.15000000    79.98000000    -4.99000000
   C     93.86000000    78.81000000    -4.51000000
   C     95.36000000    78.76000000    -4.75000000
   O     95.98000000    77.71000000    -4.59000000
   H     93.55000000    80.90000000    -4.86000000
   H     93.41000000    78.00000000    -5.08000000
   H     93.72000000    78.78000000    -3.43000000
   N     96.05000000    79.81000000    -5.20000000
   C     97.45000000    79.70000000    -5.55000000
   C     97.60000000    78.86000000    -6.81000000
   O     96.75000000    79.07000000    -7.67000000
   C     98.28000000    80.98000000    -5.59000000
   C     97.47000000    82.17000000    -5.09000000
   O     97.00000000    82.18000000    -3.93000000
   O     97.29000000    83.12000000    -5.88000000
   H     95.54000000    80.67000000    -5.34000000
   H     97.80000000    79.11000000    -4.70000000
   H     98.44000000    81.15000000    -6.66000000
   H     99.27000000    80.87000000    -5.14000000
   N     98.57000000    77.97000000    -6.99000000
   C     99.55000000    77.53000000    -6.02000000
   C    100.83000000    78.35000000    -6.07000000
   O    101.39000000    78.74000000    -5.05000000
   H     98.51000000    77.42000000    -7.84000000
   H     99.81000000    76.53000000    -6.38000000
   H     99.22000000    77.57000000    -4.98000000
   N    101.32000000    78.54000000    -7.30000000
   C    102.68000000    78.96000000    -7.60000000
   C    103.78000000    78.16000000    -6.92000000
   O    104.41000000    78.60000000    -5.96000000
   C    102.98000000    80.45000000    -7.51000000
   C    102.03000000    81.14000000    -8.48000000
   O    104.32000000    80.75000000    -7.85000000
   H    100.84000000    78.03000000    -8.03000000
   H    102.79000000    78.68000000    -8.65000000
   H    102.74000000    80.75000000    -6.49000000
   H    104.89000000    80.80000000    -7.09000000
   H    101.04000000    81.20000000    -8.03000000
   H    102.45000000    82.14000000    -8.60000000
   H    101.86000000    80.61000000    -9.42000000
   N    103.77000000    76.86000000    -7.24000000
   C    104.52000000    75.72000000    -6.76000000
   C    106.03000000    75.86000000    -6.86000000
   O    106.61000000    74.99000000    -7.51000000
   C    104.01000000    75.37000000    -5.36000000
   C    102.52000000    75.18000000    -5.10000000
   C    104.83000000    74.17000000    -4.90000000
   C    101.86000000    74.19000000    -6.04000000
   H    103.13000000    76.61000000    -7.99000000
   H    104.26000000    74.84000000    -7.35000000
   H    104.38000000    76.14000000    -4.67000000
   H    102.07000000    76.17000000    -5.21000000
   H    102.26000000    74.80000000    -4.11000000
   H    105.85000000    74.50000000    -4.71000000
   H    104.48000000    73.72000000    -3.98000000
   H    104.86000000    73.39000000    -5.66000000
   H    102.54000000    73.36000000    -6.25000000
   H    100.89000000    73.81000000    -5.71000000
   H    101.82000000    74.78000000    -6.96000000
   N    106.71000000    76.79000000    -6.18000000
   C    108.15000000    76.92000000    -6.12000000
   C    108.54000000    77.58000000    -4.80000000
   O    107.75000000    78.38000000    -4.31000000
   C    108.75000000    77.68000000    -7.30000000
   C    108.19000000    79.07000000    -7.57000000
   O    108.72000000    77.11000000    -8.58000000
   H    106.23000000    77.51000000    -5.66000000
   H    108.50000000    75.89000000    -6.11000000
   H    109.81000000    77.88000000    -7.15000000
   H    109.56000000    76.64000000    -8.55000000
   H    108.24000000    79.66000000    -6.65000000
   H    108.84000000    79.63000000    -8.24000000
   H    107.18000000    78.99000000    -7.96000000
   N    109.70000000    77.25000000    -4.23000000
   C    110.36000000    77.97000000    -3.15000000
   C    110.57000000    79.44000000    -3.46000000
   O    111.11000000    79.72000000    -4.53000000
   C    111.71000000    77.32000000    -2.85000000
   C    112.43000000    77.80000000    -1.60000000
   O    111.53000000    75.93000000    -2.68000000
   H    110.15000000    76.45000000    -4.66000000
   H    109.65000000    77.92000000    -2.32000000
   H    112.35000000    77.56000000    -3.70000000
   H    112.39000000    75.52000000    -2.80000000
   H    113.48000000    77.53000000    -1.68000000
   H    112.39000000    78.85000000    -1.32000000
   H    112.06000000    77.15000000    -0.80000000
   N    110.18000000    80.35000000    -2.56000000
   C    110.19000000    81.79000000    -2.61000000
   C    109.11000000    82.27000000    -3.57000000
   O    109.36000000    82.85000000    -4.62000000
   C    111.55000000    82.45000000    -2.81000000
   C    112.39000000    82.09000000    -1.59000000
   C    113.26000000    83.27000000    -1.18000000
   C    113.96000000    82.87000000     0.12000000
   N    115.18000000    83.62000000     0.45000000
   H    109.74000000    79.95000000    -1.74000000
   H    109.85000000    82.05000000    -1.60000000
   H    111.44000000    83.53000000    -2.88000000
   H    111.92000000    81.99000000    -3.73000000
   H    113.00000000    81.23000000    -1.88000000
   H    111.75000000    81.96000000    -0.71000000
   H    112.70000000    84.21000000    -1.12000000
   H    114.04000000    83.41000000    -1.92000000
   H    114.26000000    81.84000000    -0.07000000
   H    113.27000000    82.97000000     0.96000000
   H    115.88000000    83.61000000    -0.28000000
   H    114.84000000    84.57000000     0.54000000
   H    115.59000000    83.32000000     1.31000000
   N    107.86000000    82.02000000    -3.17000000
   C    106.74000000    82.61000000    -3.86000000
   C    105.70000000    81.65000000    -4.43000000
   O    104.99000000    81.96000000    -5.38000000
   C    106.11000000    83.70000000    -3.01000000
   C    107.07000000    84.84000000    -2.66000000
   C    106.37000000    86.00000000    -1.97000000
   O    105.49000000    86.68000000    -2.55000000
   O    106.78000000    86.47000000    -0.89000000
   H    107.73000000    81.60000000    -2.26000000
   H    107.21000000    83.13000000    -4.69000000
   H    105.85000000    83.25000000    -2.05000000
   H    105.21000000    84.08000000    -3.50000000
   H    107.45000000    85.10000000    -3.65000000
   H    107.80000000    84.48000000    -1.94000000
   N    105.44000000    80.45000000    -3.89000000
   C    105.85000000    79.80000000    -2.66000000
   H    106.71900000    80.31500000    -2.25000000
   H    105.03300000    79.83600000    -1.93900000
   H    106.10800000    78.76100000    -2.86600000
   H    104.71000000    79.92000000    -4.34000000
  Ca     95.18000000    84.18000000    -4.55800000
   O     95.34000000    86.08000000    -6.48800000
   H     95.52000000    87.00000000    -6.69800000
   H     95.24000000    85.66000000    -7.33800000
   O     94.30000000    86.53000000    -3.39800000
   H     93.44000000    86.92000000    -3.23800000
   H     94.88000000    87.28000000    -3.53800000
   O     95.90000000    84.15000000    -1.56800000
   H     96.79000000    83.82000000    -1.46800000
   H     95.44000000    83.87000000    -0.77800000
   O     97.15000000    85.93000000    -3.86800000
   H     97.47000000    86.66000000    -4.40800000
   H     97.21000000    86.26000000    -2.96800000

Ca 1.00



