%chk=loop4.holoCaM-CaMKII.run17.water2.chk
%nprocshared=20
%mem=10GB
%nosave
#b3lyp/svp scf=(tight,noincore,xqc) Test 
#IOP(5/87=12) Density=Current Pop=(MK,readradii) iop(6/33=2) iop(6/42=6)

loop4.holoCaM-CaMKII.run17.water2 

   -3  1 
   C     81.46000000    69.42000000    35.32000000
   C     80.98000000    69.92000000    36.68000000
   O     80.65000000    71.10000000    36.73000000
   H     82.48400000    69.05700000    35.40800000
   H     80.81500000    68.60900000    34.98200000
   H     81.42600000    70.23700000    34.59900000
   N     80.99000000    69.12000000    37.75000000
   C     80.49000000    69.40000000    39.08000000
   C     81.54000000    70.31000000    39.71000000
   O     82.60000000    69.72000000    39.85000000
   C     80.13000000    68.11000000    39.83000000
   C     79.55000000    68.35000000    41.21000000
   O     79.31000000    69.49000000    41.65000000
   O     79.14000000    67.35000000    41.85000000
   H     81.16000000    68.15000000    37.57000000
   H     79.57000000    69.95000000    38.91000000
   H     81.08000000    67.57000000    39.91000000
   H     79.48000000    67.47000000    39.24000000
   N     81.31000000    71.61000000    39.92000000
   C     82.32000000    72.57000000    40.32000000
   C     82.53000000    72.45000000    41.82000000
   O     83.60000000    72.03000000    42.27000000
   C     82.02000000    73.99000000    39.86000000
   C     81.94000000    74.16000000    38.34000000
   C     82.89000000    75.07000000    40.51000000
   C     83.24000000    73.92000000    37.58000000
   H     80.35000000    71.91000000    39.98000000
   H     83.32000000    72.38000000    39.92000000
   H     81.06000000    74.24000000    40.29000000
   H     81.60000000    75.16000000    38.06000000
   H     81.21000000    73.47000000    37.92000000
   H     83.87000000    74.61000000    40.62000000
   H     82.82000000    75.94000000    39.85000000
   H     82.53000000    75.39000000    41.48000000
   H     83.62000000    72.95000000    37.91000000
   H     83.08000000    73.90000000    36.50000000
   H     83.92000000    74.76000000    37.74000000
   N     81.43000000    72.58000000    42.57000000
   C     81.39000000    72.48000000    44.01000000
   C     81.39000000    71.05000000    44.54000000
   O     82.06000000    70.90000000    45.56000000
   C     80.33000000    73.39000000    44.64000000
   C     78.89000000    73.20000000    44.21000000
   O     77.99000000    73.90000000    44.74000000
   O     78.64000000    72.43000000    43.26000000
   H     80.53000000    72.82000000    42.17000000
   H     82.28000000    72.93000000    44.44000000
   H     80.69000000    74.38000000    44.37000000
   H     80.36000000    73.23000000    45.72000000
   N     80.99000000    69.98000000    43.86000000
   C     81.19000000    68.60000000    44.27000000
   C     80.09000000    68.07000000    45.17000000
   O     80.36000000    67.91000000    46.36000000
   H     80.41000000    70.16000000    43.05000000
   H     82.06000000    68.45000000    44.91000000
   H     81.27000000    67.91000000    43.42000000
   N     78.87000000    68.02000000    44.64000000
   C     77.61000000    67.61000000    45.23000000
   C     77.01000000    66.35000000    44.61000000
   O     76.00000000    65.85000000    45.10000000
   C     76.66000000    68.78000000    45.47000000
   C     76.53000000    69.59000000    44.19000000
   O     76.81000000    69.05000000    43.10000000
   O     76.24000000    70.80000000    44.25000000
   H     78.76000000    68.20000000    43.65000000
   H     77.86000000    67.29000000    46.24000000
   H     77.16000000    69.47000000    46.15000000
   H     75.69000000    68.37000000    45.75000000
   N     77.55000000    65.81000000    43.52000000
   C     77.14000000    64.67000000    42.72000000
   C     76.30000000    65.10000000    41.53000000
   O     75.83000000    64.24000000    40.79000000
   H     78.28000000    66.35000000    43.08000000
   H     76.50000000    64.04000000    43.34000000
   H     78.03000000    64.07000000    42.53000000
   N     76.18000000    66.41000000    41.29000000
   C     75.26000000    66.99000000    40.33000000
   C     75.70000000    68.22000000    39.54000000
   O     76.54000000    69.02000000    39.95000000
   C     73.85000000    67.23000000    40.88000000
   C     73.09000000    65.96000000    41.25000000
   C     71.64000000    66.30000000    41.51000000
   N     71.34000000    66.93000000    42.65000000
   O     70.77000000    66.06000000    40.67000000
   H     76.72000000    67.06000000    41.83000000
   H     75.19000000    66.14000000    39.65000000
   H     73.22000000    67.86000000    40.26000000
   H     74.01000000    67.74000000    41.83000000
   H     73.52000000    65.47000000    42.12000000
   H     73.08000000    65.28000000    40.40000000
   H     72.00000000    66.99000000    43.41000000
   H     70.40000000    67.27000000    42.82000000
   N     75.09000000    68.36000000    38.37000000
   C     75.47000000    69.42000000    37.46000000
   C     74.28000000    70.35000000    37.29000000
   O     73.33000000    70.00000000    36.59000000
   C     75.93000000    68.89000000    36.11000000
   C     76.45000000    70.00000000    35.20000000
   C     76.99000000    67.78000000    36.11000000
   H     74.53000000    67.62000000    37.96000000
   H     76.29000000    70.06000000    37.81000000
   H     75.05000000    68.44000000    35.67000000
   H     76.75000000    69.61000000    34.23000000
   H     75.78000000    70.82000000    34.94000000
   H     77.34000000    70.45000000    35.65000000
   H     77.96000000    68.17000000    36.41000000
   H     76.73000000    66.93000000    36.73000000
   H     77.06000000    67.44000000    35.07000000
   N     74.25000000    71.45000000    38.05000000
   C     73.28000000    72.49000000    37.80000000
   C     73.48000000    73.06000000    36.40000000
   O     74.50000000    72.92000000    35.73000000
   C     73.37000000    73.59000000    38.86000000
   C     72.25000000    74.61000000    38.83000000
   N     71.01000000    74.26000000    39.19000000
   O     72.37000000    75.77000000    38.44000000
   H     75.02000000    71.57000000    38.70000000
   H     72.31000000    71.98000000    37.79000000
   H     74.28000000    74.17000000    38.72000000
   H     73.47000000    73.02000000    39.78000000
   H     70.78000000    73.28000000    39.24000000
   H     70.32000000    74.97000000    39.35000000
   N     72.43000000    73.71000000    35.90000000
   C     72.51000000    74.52000000    34.70000000
   C     73.62000000    75.57000000    34.73000000
   O     74.26000000    75.83000000    33.71000000
   C     71.19000000    75.18000000    34.33000000
   C     71.29000000    75.96000000    33.04000000
   C     71.38000000    75.29000000    31.81000000
   C     71.38000000    77.35000000    32.98000000
   C     71.64000000    75.89000000    30.58000000
   C     71.53000000    78.07000000    31.78000000
   C     71.66000000    77.30000000    30.61000000
   O     71.70000000    77.92000000    29.39000000
   H     71.55000000    73.70000000    36.39000000
   H     72.82000000    73.83000000    33.91000000
   H     71.05000000    75.90000000    35.14000000
   H     70.36000000    74.48000000    34.24000000
   H     71.28000000    74.21000000    31.83000000
   H     71.35000000    77.92000000    33.90000000
   H     71.87000000    75.34000000    29.68000000
   H     71.73000000    79.13000000    31.70000000
   H     72.02000000    78.81000000    29.54000000
   N     73.92000000    76.13000000    35.90000000
   C     75.00000000    77.08000000    36.09000000
   C     76.35000000    76.44000000    35.83000000
   O     77.30000000    77.16000000    35.51000000
   C     74.88000000    77.45000000    37.57000000
   C     76.02000000    78.30000000    38.12000000
   C     76.28000000    79.58000000    37.34000000
   O     75.50000000    80.14000000    36.54000000
   O     77.37000000    80.19000000    37.44000000
   H     73.36000000    75.98000000    36.73000000
   H     74.92000000    77.91000000    35.40000000
   H     74.85000000    76.54000000    38.17000000
   H     73.99000000    78.07000000    37.72000000
   H     76.93000000    77.71000000    38.16000000
   H     75.74000000    78.61000000    39.13000000
   N     76.49000000    75.11000000    35.94000000
   C     77.65000000    74.28000000    35.70000000
   C     77.65000000    73.69000000    34.30000000
   O     78.68000000    73.64000000    33.63000000
   C     77.71000000    73.18000000    36.75000000
   C     78.14000000    73.74000000    38.10000000
   C     77.80000000    72.87000000    39.31000000
   O     78.61000000    72.76000000    40.26000000
   O     76.76000000    72.18000000    39.36000000
   H     75.57000000    74.70000000    36.00000000
   H     78.56000000    74.88000000    35.83000000
   H     78.43000000    72.40000000    36.52000000
   H     76.72000000    72.73000000    36.82000000
   H     77.64000000    74.69000000    38.29000000
   H     79.21000000    73.93000000    38.06000000
   N     76.49000000    73.29000000    33.76000000
   C     76.33000000    73.02000000    32.34000000
   H     75.68900000    73.78100000    31.89600000
   H     77.30500000    73.03900000    31.85400000
   H     75.87500000    72.03900000    32.20500000
   H     75.68000000    73.29000000    34.35000000
  Ca     77.24000000    71.03000000    41.60000000
   O     74.62000000    71.19000000    41.77000000
   H     74.14000000    70.45000000    42.15000000
   H     74.43000000    71.92000000    42.34000000
   O     76.23000000    73.55000000    42.41000000
   H     76.91000000    73.51000000    43.08000000
   H     76.19000000    74.47000000    42.16000000

Ca 1.00



