%chk=loop3.holoCaM.run51.water2.chk
%nprocshared=20
%mem=10GB
%nosave
#b3lyp/svp scf=(tight,noincore,xqc) Test 
#IOP(5/87=12) Density=Current Pop=(MK,readradii) iop(6/33=2) iop(6/42=6)

loop3.holoCaM.run51.water2 

   0  1 
   C     74.59000000    52.38000000     7.19900000
   C     74.63000000    53.62000000     8.07900000
   O     74.97000000    53.44000000     9.24900000
   H     74.34200000    52.66800000     6.17700000
   H     75.56500000    51.89300000     7.21200000
   H     73.83400000    51.69100000     7.57500000
   N     74.35000000    54.83000000     7.59900000
   C     74.33000000    56.05000000     8.38900000
   C     73.01000000    56.29000000     9.09900000
   O     72.17000000    57.05000000     8.61900000
   C     74.70000000    57.13000000     7.38900000
   C     74.61000000    58.54000000     7.95900000
   O     74.41000000    59.49000000     7.17900000
   O     74.74000000    58.74000000     9.18900000
   H     74.04000000    54.82000000     6.63900000
   H     75.15000000    55.99000000     9.10900000
   H     74.11000000    57.20000000     6.47900000
   H     75.71000000    56.99000000     6.99900000
   N     72.77000000    55.61000000    10.22900000
   C     71.44000000    55.37000000    10.73900000
   C     70.76000000    56.42000000    11.61900000
   O     69.60000000    56.26000000    11.97900000
   C     71.25000000    54.01000000    11.39900000
   C     71.75000000    52.82000000    10.57900000
   C     72.17000000    51.59000000    11.37900000
   C     72.44000000    50.47000000    10.38900000
   N     73.13000000    49.35000000    11.03900000
   H     73.41000000    54.85000000    10.40900000
   H     70.89000000    55.33000000     9.79900000
   H     70.18000000    53.86000000    11.57900000
   H     71.60000000    54.07000000    12.42900000
   H     72.53000000    53.05000000     9.85900000
   H     70.98000000    52.57000000     9.84900000
   H     71.35000000    51.22000000    11.98900000
   H     73.00000000    51.78000000    12.05900000
   H     73.09000000    50.76000000     9.55900000
   H     71.46000000    50.27000000     9.96900000
   H     72.36000000    48.79000000    11.37900000
   H     73.63000000    48.85000000    10.31900000
   H     73.77000000    49.57000000    11.78900000
   N     71.52000000    57.46000000    11.94900000
   C     70.97000000    58.72000000    12.40900000
   C     70.76000000    59.75000000    11.30900000
   O     70.45000000    60.90000000    11.57900000
   C     71.88000000    59.29000000    13.48900000
   C     73.34000000    59.53000000    13.15900000
   O     73.75000000    59.35000000    11.98900000
   O     74.20000000    59.87000000    13.99900000
   H     72.49000000    57.48000000    11.68900000
   H     70.07000000    58.45000000    12.96900000
   H     72.01000000    58.58000000    14.30900000
   H     71.48000000    60.17000000    14.00900000
   N     71.17000000    59.43000000    10.06900000
   C     71.00000000    60.20000000     8.85900000
   C     71.87000000    61.45000000     8.73900000
   O     71.57000000    62.18000000     7.78900000
   H     71.64000000    58.55000000     9.95900000
   H     70.01000000    60.66000000     8.88900000
   H     71.18000000    59.59000000     7.97900000
   N     72.87000000    61.64000000     9.59900000
   C     73.52000000    62.93000000     9.65900000
   C     74.40000000    63.35000000     8.49900000
   O     74.90000000    64.47000000     8.36900000
   C     74.20000000    63.13000000    11.00900000
   C     75.61000000    62.56000000    11.11900000
   N     76.44000000    63.22000000    11.91900000
   O     75.85000000    61.47000000    10.61900000
   H     73.03000000    60.91000000    10.27900000
   H     72.72000000    63.67000000     9.62900000
   H     73.53000000    62.90000000    11.83900000
   H     74.29000000    64.21000000    11.11900000
   H     76.19000000    64.15000000    12.22900000
   H     77.40000000    62.90000000    11.97900000
   N     74.71000000    62.35000000     7.66900000
   C     75.44000000    62.50000000     6.41900000
   C     76.83000000    61.86000000     6.45900000
   O     77.61000000    62.03000000     5.52900000
   H     74.36000000    61.42000000     7.81900000
   H     75.58000000    63.57000000     6.26900000
   H     74.88000000    61.97000000     5.64900000
   N     77.15000000    61.21000000     7.57900000
   C     78.44000000    60.57000000     7.72900000
   C     78.40000000    59.18000000     8.34900000
   O     77.65000000    58.98000000     9.30900000
   C     79.23000000    61.52000000     8.62900000
   C     79.39000000    62.94000000     8.14900000
   C     78.53000000    63.94000000     8.61900000
   C     80.48000000    63.23000000     7.30900000
   C     78.71000000    65.24000000     8.13900000
   C     80.85000000    64.57000000     7.11900000
   C     79.89000000    65.56000000     7.43900000
   O     80.17000000    66.87000000     7.19900000
   H     76.41000000    61.21000000     8.26900000
   H     79.05000000    60.55000000     6.82900000
   H     80.21000000    61.07000000     8.75900000
   H     78.79000000    61.49000000     9.62900000
   H     77.65000000    63.68000000     9.18900000
   H     81.00000000    62.43000000     6.80900000
   H     78.07000000    66.08000000     8.34900000
   H     81.66000000    64.91000000     6.49900000
   H     81.10000000    67.08000000     7.11900000
   N     79.25000000    58.21000000     7.97900000
   C     79.40000000    56.91000000     8.59900000
   C     80.67000000    57.08000000     9.41900000
   O     81.79000000    57.16000000     8.92900000
   C     79.52000000    55.76000000     7.59900000
   C     78.20000000    55.56000000     6.85900000
   C     80.19000000    54.50000000     8.12900000
   C     78.50000000    54.62000000     5.69900000
   H     79.79000000    58.37000000     7.14900000
   H     78.66000000    56.63000000     9.34900000
   H     80.26000000    56.18000000     6.91900000
   H     77.90000000    56.52000000     6.44900000
   H     77.46000000    55.16000000     7.56900000
   H     81.14000000    54.77000000     8.59900000
   H     79.68000000    54.26000000     9.05900000
   H     80.31000000    53.66000000     7.43900000
   H     79.44000000    54.86000000     5.20900000
   H     78.44000000    53.59000000     6.03900000
   H     77.73000000    54.66000000     4.92900000
   N     80.51000000    57.13000000    10.74900000
   C     81.47000000    56.91000000    11.79900000
   C     81.96000000    55.49000000    12.08900000
   O     81.61000000    54.57000000    11.35900000
   C     80.90000000    57.45000000    13.10900000
   O     79.66000000    56.83000000    13.35900000
   H     79.58000000    57.06000000    11.13900000
   H     82.40000000    57.44000000    11.58900000
   H     80.82000000    58.54000000    13.05900000
   H     81.66000000    57.11000000    13.80900000
   H     78.97000000    57.02000000    12.72900000
   N     83.03000000    55.39000000    12.88900000
   C     83.69000000    54.13000000    13.14900000
   C     82.77000000    53.07000000    13.72900000
   O     82.72000000    51.96000000    13.20900000
   C     84.93000000    54.38000000    14.00900000
   H     83.44000000    56.18000000    13.36900000
   H     83.99000000    53.70000000    12.19900000
   H     85.60000000    53.53000000    14.03900000
   H     85.57000000    55.22000000    13.71900000
   H     84.61000000    54.65000000    15.01900000
   N     81.90000000    53.49000000    14.64900000
   C     80.81000000    52.60000000    14.99900000
   C     79.92000000    52.15000000    13.84900000
   O     79.54000000    50.98000000    13.78900000
   C     80.00000000    53.13000000    16.17900000
   H     81.96000000    54.45000000    14.96900000
   H     81.25000000    51.65000000    15.29900000
   H     80.45000000    53.07000000    17.16900000
   H     79.67000000    54.17000000    16.10900000
   H     79.09000000    52.54000000    16.31900000
   N     79.53000000    53.07000000    12.96900000
   C     78.63000000    52.65000000    11.89900000
   C     79.22000000    51.80000000    10.78900000
   O     78.46000000    50.95000000    10.31900000
   C     78.00000000    53.89000000    11.26900000
   C     76.97000000    54.54000000    12.17900000
   C     76.72000000    55.98000000    11.73900000
   O     75.59000000    56.48000000    11.61900000
   O     77.65000000    56.80000000    11.56900000
   H     79.92000000    53.99000000    12.94900000
   H     77.80000000    52.14000000    12.37900000
   H     77.60000000    53.67000000    10.26900000
   H     78.88000000    54.52000000    11.15900000
   H     77.30000000    54.64000000    13.20900000
   H     76.05000000    53.95000000    12.16900000
   N     80.49000000    52.03000000    10.43900000
   C     81.32000000    51.12000000     9.68900000
   H     82.28300000    51.01100000    10.18900000
   H     80.83100000    50.14800000     9.62800000
   H     81.47500000    51.51300000     8.68400000
   H     81.00000000    52.78000000    10.87900000
  Ca     76.08000000    58.98000000    11.28000000
   O     76.92000000    58.39000000    13.93000000
   H     77.10000000    59.28000000    14.23000000
   H     77.27000000    57.83000000    14.62000000
   O     78.23000000    60.20000000    12.09000000
   H     78.95000000    60.67000000    11.69000000
   H     78.54000000    59.98000000    12.97000000

Ca 1.00



