%chk=loop3.apoCaM-CA-Ng.Init31.run56.water6.chk
%nprocshared=20
%mem=10GB
%nosave
#b3lyp/svp scf=(tight,noincore,xqc) Test 
#IOP(5/87=12) Density=Current Pop=(MK,readradii) iop(6/33=2) iop(6/42=6)

loop3.apoCaM-CA-Ng.Init31.run56.water6 

   0  1 
   C     99.91000000    50.14000000    23.36000000
   C    101.00000000    51.09000000    22.90000000
   O    100.72000000    51.82000000    21.95000000
   H     99.01600000    50.29400000    22.75600000
   H    100.25200000    49.11100000    23.24600000
   H     99.67800000    50.33200000    24.40700000
   N    102.20000000    51.04000000    23.49000000
   C    103.26000000    52.02000000    23.33000000
   C    104.29000000    51.56000000    22.31000000
   O    104.57000000    50.38000000    22.11000000
   C    103.94000000    52.45000000    24.62000000
   C    104.44000000    51.38000000    25.59000000
   O    105.39000000    51.72000000    26.33000000
   O    103.90000000    50.25000000    25.53000000
   H    102.36000000    50.56000000    24.36000000
   H    102.81000000    52.93000000    22.93000000
   H    103.18000000    53.01000000    25.16000000
   H    104.80000000    53.09000000    24.44000000
   N    104.86000000    52.53000000    21.59000000
   C    105.92000000    52.43000000    20.61000000
   C    105.47000000    52.23000000    19.17000000
   O    106.22000000    51.68000000    18.36000000
   C    106.88000000    53.60000000    20.80000000
   C    107.65000000    53.62000000    22.12000000
   C    108.44000000    54.92000000    22.02000000
   C    109.49000000    55.15000000    23.11000000
   N    110.21000000    56.41000000    22.87000000
   H    104.68000000    53.48000000    21.90000000
   H    106.46000000    51.49000000    20.76000000
   H    106.32000000    54.53000000    20.67000000
   H    107.60000000    53.57000000    19.99000000
   H    108.27000000    52.73000000    22.11000000
   H    107.09000000    53.70000000    23.05000000
   H    107.68000000    55.68000000    22.21000000
   H    108.99000000    55.03000000    21.09000000
   H    110.18000000    54.31000000    23.05000000
   H    108.98000000    55.15000000    24.08000000
   H    110.81000000    56.60000000    23.66000000
   H    110.52000000    56.39000000    21.91000000
   H    109.52000000    57.14000000    22.78000000
   N    104.16000000    52.42000000    18.96000000
   C    103.51000000    51.86000000    17.80000000
   C    103.33000000    52.79000000    16.61000000
   O    102.77000000    52.41000000    15.58000000
   C    102.13000000    51.36000000    18.22000000
   C    101.22000000    52.51000000    18.61000000
   O    100.01000000    52.42000000    18.32000000
   O    101.63000000    53.53000000    19.22000000
   H    103.56000000    52.72000000    19.72000000
   H    104.03000000    50.98000000    17.40000000
   H    102.41000000    50.76000000    19.09000000
   H    101.68000000    50.69000000    17.49000000
   N    103.57000000    54.09000000    16.78000000
   C    103.38000000    55.10000000    15.76000000
   C    102.04000000    55.80000000    15.62000000
   O    101.22000000    55.81000000    16.54000000
   H    104.20000000    54.27000000    17.55000000
   H    103.59000000    54.66000000    14.79000000
   H    104.18000000    55.82000000    15.95000000
   N    101.80000000    56.47000000    14.49000000
   C    102.74000000    56.71000000    13.41000000
   C    101.93000000    56.75000000    12.12000000
   O    100.88000000    57.37000000    12.16000000
   C    103.44000000    58.06000000    13.48000000
   C    104.37000000    58.42000000    12.33000000
   N    105.48000000    57.69000000    12.20000000
   O    104.01000000    59.12000000    11.39000000
   H    100.86000000    56.85000000    14.40000000
   H    103.47000000    55.91000000    13.29000000
   H    104.12000000    58.18000000    14.34000000
   H    102.65000000    58.80000000    13.44000000
   H    105.75000000    56.97000000    12.86000000
   H    106.05000000    57.88000000    11.39000000
   N    102.39000000    56.20000000    10.99000000
   C    103.49000000    55.26000000    10.90000000
   C    103.04000000    53.85000000    11.23000000
   O    102.55000000    53.46000000    12.28000000
   H    101.84000000    56.25000000    10.15000000
   H    104.34000000    55.50000000    11.55000000
   H    103.93000000    55.20000000     9.91000000
   N    103.34000000    52.94000000    10.29000000
   C    103.05000000    51.52000000    10.27000000
   C    104.18000000    50.59000000     9.87000000
   O    103.98000000    49.83000000     8.92000000
   C    101.75000000    51.33000000     9.49000000
   C    100.65000000    52.22000000    10.03000000
   C     99.85000000    51.86000000    11.11000000
   C    100.51000000    53.51000000     9.49000000
   C     99.03000000    52.82000000    11.72000000
   C     99.64000000    54.45000000    10.05000000
   C     98.98000000    54.15000000    11.26000000
   O     98.28000000    55.12000000    11.92000000
   H    103.64000000    53.34000000     9.41000000
   H    102.85000000    51.15000000    11.27000000
   H    101.42000000    50.29000000     9.55000000
   H    101.83000000    51.55000000     8.43000000
   H     99.86000000    50.85000000    11.50000000
   H    101.05000000    53.77000000     8.59000000
   H     98.47000000    52.61000000    12.62000000
   H     99.54000000    55.46000000     9.69000000
   H     98.43000000    56.01000000    11.61000000
   N    105.38000000    50.73000000    10.43000000
   C    106.60000000    50.22000000     9.84000000
   C    106.81000000    48.72000000     9.80000000
   O    107.77000000    48.28000000     9.17000000
   C    107.78000000    50.93000000    10.50000000
   C    107.75000000    52.45000000    10.36000000
   C    108.01000000    50.75000000    12.00000000
   C    107.53000000    52.94000000     8.94000000
   H    105.40000000    51.15000000    11.35000000
   H    106.54000000    50.46000000     8.77000000
   H    108.64000000    50.52000000     9.98000000
   H    108.65000000    52.85000000    10.83000000
   H    106.82000000    52.80000000    10.80000000
   H    108.27000000    49.70000000    12.13000000
   H    108.96000000    51.24000000    12.20000000
   H    107.18000000    51.18000000    12.57000000
   H    106.48000000    52.88000000     8.62000000
   H    107.86000000    53.97000000     8.82000000
   H    107.97000000    52.25000000     8.21000000
   N    106.06000000    47.96000000    10.60000000
   C    106.44000000    46.62000000    10.99000000
   C    106.78000000    46.50000000    12.47000000
   O    107.42000000    45.51000000    12.81000000
   C    105.27000000    45.75000000    10.55000000
   O    104.26000000    45.70000000    11.53000000
   H    105.35000000    48.37000000    11.19000000
   H    107.37000000    46.40000000    10.47000000
   H    105.60000000    44.74000000    10.32000000
   H    104.80000000    46.18000000     9.67000000
   H    103.70000000    46.48000000    11.66000000
   N    106.33000000    47.39000000    13.37000000
   C    106.48000000    47.37000000    14.81000000
   C    105.55000000    46.41000000    15.53000000
   O    105.28000000    46.47000000    16.73000000
   C    106.72000000    48.78000000    15.33000000
   H    105.65000000    48.07000000    13.07000000
   H    107.45000000    46.87000000    14.83000000
   H    107.05000000    48.85000000    16.37000000
   H    107.52000000    49.28000000    14.79000000
   H    105.77000000    49.33000000    15.27000000
   N    104.86000000    45.62000000    14.69000000
   C    103.66000000    44.96000000    15.15000000
   C    102.59000000    45.86000000    15.76000000
   O    102.21000000    45.75000000    16.92000000
   C    104.08000000    43.74000000    15.96000000
   H    105.19000000    45.55000000    13.74000000
   H    103.28000000    44.47000000    14.26000000
   H    104.69000000    43.03000000    15.42000000
   H    104.66000000    44.03000000    16.83000000
   H    103.15000000    43.25000000    16.28000000
   N    102.30000000    46.91000000    14.98000000
   C    101.18000000    47.81000000    15.13000000
   C     99.93000000    47.55000000    14.30000000
   O     98.80000000    47.45000000    14.79000000
   C    101.75000000    49.22000000    14.99000000
   C    102.08000000    49.69000000    13.57000000
   C    103.15000000    48.83000000    12.91000000
   O    102.84000000    47.75000000    12.36000000
   O    104.30000000    49.31000000    12.86000000
   H    102.90000000    46.97000000    14.16000000
   H    100.90000000    47.63000000    16.17000000
   H    102.64000000    49.37000000    15.59000000
   H    101.10000000    49.95000000    15.46000000
   H    102.45000000    50.71000000    13.64000000
   H    101.14000000    49.79000000    13.04000000
   N    100.16000000    47.31000000    13.01000000
   C     99.29000000    46.54000000    12.15000000
   H     98.39300000    47.11900000    11.93000000
   H     99.81000000    46.30800000    11.22000000
   H     99.01000000    45.61300000    12.65100000
   H    101.09000000    47.52000000    12.68000000
  Ca     99.40000000    55.13000000    18.42000000
   O     98.71000000    54.34000000    15.98000000
   H     99.43000000    54.02000000    15.43000000
   H     97.95000000    54.35000000    15.40000000
   O     99.22000000    53.84000000    20.83000000
   H     99.92000000    53.22000000    21.04000000
   H     98.57000000    53.72000000    21.53000000
   O     98.19000000    57.16000000    20.10000000
   H     97.40000000    57.53000000    19.71000000
   H     98.53000000    57.87000000    20.66000000
   O    100.85800000    57.14000000    19.09000000
   H    101.60800000    57.60000000    18.71000000
   H    100.56800000    57.71000000    19.80000000
   O     96.81000000    54.68000000    18.56000000
   H     96.75000000    53.81000000    18.97000000
   H     95.97000000    54.80000000    18.12000000
   O     98.43000000    57.21000000    16.78000000
   H     98.19000000    58.13000000    16.88000000
   H     98.61000000    57.11000000    15.85000000

Ca 1.00



