%chk=loop4.apoCaM-CA-Ng.Init295.run100.water3.chk
%nprocshared=20
%mem=10GB
%nosave
#b3lyp/svp scf=(tight,noincore,xqc) Test 
#IOP(5/87=12) Density=Current Pop=(MK,readradii) iop(6/33=2) iop(6/42=6)

loop4.apoCaM-CA-Ng.Init295.run100.water3 

   -3  1 
   C     20.34000000    89.32000000    81.74000000
   C     19.95000000    87.94000000    82.28000000
   O     18.96000000    87.33000000    81.87000000
   H     21.32900000    89.26500000    81.28600000
   H     19.61400000    89.63600000    80.99100000
   H     20.35600000    90.04000000    82.55800000
   N     20.81000000    87.27000000    83.05000000
   C     20.56000000    85.96000000    83.61000000
   C     20.50000000    84.76000000    82.68000000
   O     19.82000000    83.75000000    82.89000000
   C     19.49000000    85.95000000    84.70000000
   C     19.56000000    86.99000000    85.82000000
   O     20.59000000    87.66000000    86.03000000
   O     18.59000000    87.28000000    86.55000000
   H     21.62000000    87.76000000    83.40000000
   H     21.45000000    85.72000000    84.19000000
   H     19.53000000    84.95000000    85.12000000
   H     18.54000000    86.19000000    84.23000000
   N     21.12000000    84.89000000    81.50000000
   C     20.92000000    83.97000000    80.40000000
   C     21.55000000    82.61000000    80.68000000
   O     22.75000000    82.55000000    80.93000000
   C     21.47000000    84.54000000    79.10000000
   C     20.58000000    85.74000000    78.76000000
   C     21.51000000    83.58000000    77.91000000
   C     21.14000000    86.58000000    77.62000000
   H     21.70000000    85.69000000    81.30000000
   H     19.87000000    83.74000000    80.21000000
   H     22.47000000    84.94000000    79.25000000
   H     20.70000000    86.45000000    79.58000000
   H     19.53000000    85.45000000    78.70000000
   H     20.48000000    83.28000000    77.75000000
   H     21.79000000    83.95000000    76.93000000
   H     22.04000000    82.63000000    78.04000000
   H     22.08000000    87.05000000    77.91000000
   H     21.21000000    86.01000000    76.69000000
   H     20.49000000    87.44000000    77.56000000
   N     20.84000000    81.48000000    80.75000000
   C     19.41000000    81.32000000    80.92000000
   C     19.09000000    80.54000000    82.19000000
   O     17.91000000    80.41000000    82.53000000
   C     18.84000000    80.72000000    79.64000000
   C     19.50000000    79.50000000    79.04000000
   O     19.25000000    79.13000000    77.87000000
   O     20.20000000    78.77000000    79.78000000
   H     21.44000000    80.66000000    80.78000000
   H     18.92000000    82.29000000    80.97000000
   H     18.89000000    81.50000000    78.87000000
   H     17.77000000    80.54000000    79.78000000
   N     20.01000000    80.08000000    83.04000000
   C     19.81000000    79.33000000    84.26000000
   C     19.26000000    77.94000000    83.99000000
   O     19.66000000    77.44000000    82.95000000
   H     20.97000000    80.12000000    82.71000000
   H     19.02000000    79.77000000    84.87000000
   H     20.70000000    79.27000000    84.89000000
   N     18.28000000    77.43000000    84.74000000
   C     17.50000000    76.26000000    84.38000000
   C     16.33000000    76.38000000    83.42000000
   O     15.72000000    75.36000000    83.12000000
   C     17.10000000    75.48000000    85.62000000
   C     18.16000000    75.24000000    86.69000000
   O     18.13000000    75.82000000    87.80000000
   O     19.16000000    74.57000000    86.38000000
   H     17.94000000    77.98000000    85.51000000
   H     18.19000000    75.66000000    83.79000000
   H     16.57000000    74.53000000    85.53000000
   H     16.36000000    76.08000000    86.14000000
   N     16.05000000    77.63000000    83.03000000
   C     15.02000000    77.98000000    82.07000000
   C     13.68000000    77.82000000    82.76000000
   O     12.70000000    77.67000000    82.03000000
   H     16.66000000    78.40000000    83.26000000
   H     15.05000000    77.28000000    81.24000000
   H     15.21000000    78.92000000    81.55000000
   N     13.57000000    78.07000000    84.07000000
   C     12.35000000    78.25000000    84.83000000
   C     11.54000000    79.50000000    84.51000000
   O     10.34000000    79.42000000    84.24000000
   C     11.56000000    76.94000000    84.87000000
   C     12.31000000    75.77000000    85.50000000
   C     12.58000000    75.95000000    86.99000000
   N     13.67000000    76.66000000    87.27000000
   O     11.88000000    75.53000000    87.91000000
   H     14.41000000    78.20000000    84.61000000
   H     12.63000000    78.50000000    85.85000000
   H     11.40000000    76.60000000    83.85000000
   H     10.59000000    77.01000000    85.35000000
   H     13.25000000    75.57000000    84.98000000
   H     11.73000000    74.86000000    85.32000000
   H     14.07000000    77.24000000    86.55000000
   H     13.82000000    77.00000000    88.22000000
   N     12.16000000    80.67000000    84.37000000
   C     11.62000000    81.97000000    84.02000000
   C     11.70000000    83.02000000    85.12000000
   O     12.70000000    83.09000000    85.84000000
   C     12.20000000    82.41000000    82.68000000
   C     13.69000000    82.73000000    82.62000000
   C     11.85000000    81.33000000    81.67000000
   H     13.12000000    80.65000000    84.69000000
   H     10.55000000    81.88000000    83.85000000
   H     11.69000000    83.30000000    82.32000000
   H     13.97000000    83.61000000    83.19000000
   H     14.34000000    81.86000000    82.79000000
   H     13.98000000    83.14000000    81.65000000
   H     10.76000000    81.25000000    81.66000000
   H     12.07000000    81.67000000    80.66000000
   H     12.41000000    80.41000000    81.85000000
   N     10.81000000    84.01000000    85.16000000
   C     10.95000000    85.22000000    85.95000000
   C     10.83000000    86.45000000    85.06000000
   O     10.48000000    86.27000000    83.89000000
   C      9.87000000    85.09000000    87.02000000
   C     10.16000000    83.95000000    87.99000000
   N     11.14000000    84.09000000    88.89000000
   O      9.46000000    82.94000000    87.97000000
   H     10.18000000    84.02000000    84.37000000
   H     11.95000000    85.28000000    86.38000000
   H      8.86000000    85.05000000    86.62000000
   H      9.93000000    86.05000000    87.52000000
   H     11.69000000    84.94000000    88.93000000
   H     11.52000000    83.31000000    89.41000000
   N     11.06000000    87.65000000    85.60000000
   C     10.66000000    88.87000000    84.94000000
   C     11.47000000    90.12000000    85.25000000
   O     10.88000000    91.17000000    85.46000000
   C      9.15000000    89.02000000    85.11000000
   C      8.29000000    89.65000000    84.04000000
   C      8.54000000    89.45000000    82.68000000
   C      7.16000000    90.42000000    84.32000000
   C      7.78000000    90.06000000    81.67000000
   C      6.36000000    91.04000000    83.34000000
   C      6.65000000    90.84000000    81.98000000
   O      5.86000000    91.22000000    80.94000000
   H     11.16000000    87.68000000    86.60000000
   H     10.93000000    88.68000000    83.90000000
   H      8.97000000    89.46000000    86.09000000
   H      8.67000000    88.04000000    85.19000000
   H      9.29000000    88.80000000    82.25000000
   H      6.90000000    90.50000000    85.36000000
   H      8.01000000    89.72000000    80.67000000
   H      5.45000000    91.57000000    83.58000000
   H      5.07000000    91.75000000    81.05000000
   N     12.78000000    90.01000000    85.47000000
   C     13.50000000    91.08000000    86.12000000
   C     13.81000000    92.25000000    85.20000000
   O     13.36000000    93.34000000    85.54000000
   C     14.75000000    90.47000000    86.75000000
   C     15.44000000    91.58000000    87.53000000
   C     16.50000000    90.97000000    88.44000000
   O     16.12000000    90.73000000    89.61000000
   O     17.69000000    90.80000000    88.12000000
   H     13.21000000    89.11000000    85.28000000
   H     12.95000000    91.60000000    86.91000000
   H     15.45000000    90.05000000    86.02000000
   H     14.38000000    89.75000000    87.48000000
   H     14.75000000    92.16000000    88.15000000
   H     15.88000000    92.27000000    86.81000000
   N     14.47000000    92.23000000    84.04000000
   C     14.89000000    91.09000000    83.25000000
   C     13.79000000    90.46000000    82.40000000
   O     12.64000000    90.87000000    82.54000000
   C     16.15000000    91.47000000    82.47000000
   C     17.25000000    92.13000000    83.29000000
   C     17.83000000    91.35000000    84.46000000
   O     17.80000000    90.10000000    84.53000000
   O     18.46000000    91.94000000    85.36000000
   H     14.51000000    93.16000000    83.63000000
   H     15.25000000    90.29000000    83.89000000
   H     15.87000000    92.27000000    81.79000000
   H     16.58000000    90.55000000    82.05000000
   H     16.88000000    93.06000000    83.72000000
   H     18.10000000    92.52000000    82.73000000
   N     14.12000000    89.42000000    81.63000000
   C     13.33000000    88.72000000    80.63000000
   H     12.42500000    89.29000000    80.41800000
   H     13.91300000    88.61200000    79.71600000
   H     13.05800000    87.73400000    81.00600000
   H     15.12000000    89.30000000    81.63000000
  Ca     19.66000000    90.13000000    86.65000000
   O     19.99000000    89.64000000    89.16000000
   H     20.38000000    89.29000000    89.97000000
   H     19.25000000    90.16000000    89.46000000
   O     20.09000000    92.48000000    88.19000000
   H     19.39000000    93.10000000    88.40000000
   H     20.86000000    92.82000000    88.65000000
   O     22.33000000    90.38000000    86.95000000
   H     23.04000000    89.75000000    86.87000000
   H     22.62000000    90.99000000    87.63000000

Ca 1.00



