%chk=loop2.apoCaM-CA-Ng.Init31.run66.water5.chk
%nprocshared=20
%mem=10GB
%nosave
#b3lyp/svp scf=(tight,noincore,xqc) Test 
#IOP(5/87=12) Density=Current Pop=(MK,readradii) iop(6/33=2) iop(6/42=6)

loop2.apoCaM-CA-Ng.Init31.run66.water5 

   -2  1 
   C     74.53000000    70.01000000     9.94000000
   C     74.19000000    68.84000000    10.85000000
   O     74.95000000    68.36000000    11.69000000
   H     75.54300000    69.88800000     9.55500000
   H     73.82700000    70.04000000     9.10800000
   H     74.46600000    70.94000000    10.50400000
   N     72.99000000    68.26000000    10.76000000
   C     71.92000000    68.52000000     9.83000000
   C     71.53000000    67.37000000     8.91000000
   O     71.81000000    66.22000000     9.22000000
   C     70.69000000    68.96000000    10.63000000
   C     70.46000000    68.30000000    11.98000000
   O     70.34000000    68.97000000    13.02000000
   O     70.37000000    67.05000000    12.02000000
   H     72.79000000    67.49000000    11.39000000
   H     72.04000000    69.42000000     9.21000000
   H     69.76000000    68.83000000    10.08000000
   H     70.81000000    70.03000000    10.82000000
   N     70.92000000    67.78000000     7.79000000
   C     70.35000000    66.97000000     6.72000000
   C     69.41000000    65.85000000     7.13000000
   O     68.38000000    66.11000000     7.76000000
   C     71.50000000    66.70000000     5.76000000
   H     70.77000000    68.77000000     7.69000000
   H     69.58000000    67.60000000     6.27000000
   H     72.28000000    66.00000000     6.06000000
   H     71.06000000    66.30000000     4.84000000
   H     72.03000000    67.64000000     5.59000000
   N     69.62000000    64.62000000     6.65000000
   C     68.83000000    63.43000000     6.91000000
   C     68.82000000    63.09000000     8.39000000
   O     69.51000000    63.56000000     9.29000000
   C     69.48000000    62.27000000     6.15000000
   C     70.97000000    62.01000000     6.33000000
   O     71.64000000    62.69000000     7.14000000
   O     71.56000000    61.14000000     5.66000000
   H     70.55000000    64.50000000     6.29000000
   H     67.82000000    63.62000000     6.54000000
   H     69.31000000    62.49000000     5.10000000
   H     68.94000000    61.34000000     6.33000000
   N     67.87000000    62.24000000     8.79000000
   C     67.68000000    61.67000000    10.11000000
   C     66.49000000    60.76000000    10.40000000
   O     65.41000000    61.03000000     9.86000000
   H     67.31000000    61.78000000     8.08000000
   H     67.60000000    62.49000000    10.83000000
   H     68.58000000    61.12000000    10.37000000
   N     66.68000000    59.68000000    11.15000000
   C     65.73000000    58.76000000    11.74000000
   C     65.80000000    58.59000000    13.25000000
   O     64.78000000    58.37000000    13.89000000
   C     65.77000000    57.38000000    11.09000000
   C     65.42000000    57.42000000     9.61000000
   N     64.26000000    58.04000000     9.37000000
   O     66.11000000    56.94000000     8.71000000
   H     67.66000000    59.57000000    11.37000000
   H     64.74000000    59.16000000    11.52000000
   H     65.00000000    56.67000000    11.38000000
   H     66.74000000    56.90000000    11.27000000
   H     63.71000000    58.25000000    10.19000000
   H     63.91000000    58.01000000     8.42000000
   N     66.99000000    58.82000000    13.80000000
   C     67.15000000    58.96000000    15.24000000
   C     66.73000000    57.79000000    16.11000000
   O     66.54000000    56.67000000    15.64000000
   H     67.79000000    59.00000000    13.21000000
   H     66.60000000    59.86000000    15.53000000
   H     68.18000000    59.23000000    15.48000000
   N     66.59000000    58.03000000    17.42000000
   C     66.23000000    59.29000000    18.04000000
   C     67.47000000    60.14000000    18.26000000
   O     67.25000000    61.35000000    18.26000000
   C     65.40000000    59.10000000    19.30000000
   C     64.79000000    60.37000000    19.88000000
   O     64.39000000    58.15000000    19.04000000
   H     66.71000000    57.27000000    18.08000000
   H     65.56000000    59.81000000    17.35000000
   H     65.89000000    58.54000000    20.10000000
   H     64.31000000    57.66000000    19.86000000
   H     64.39000000    60.99000000    19.08000000
   H     64.05000000    60.11000000    20.64000000
   H     65.56000000    60.99000000    20.33000000
   N     68.66000000    59.55000000    18.31000000
   C     69.90000000    60.06000000    18.86000000
   C     69.78000000    60.60000000    20.28000000
   O     69.24000000    61.64000000    20.65000000
   C     70.50000000    61.14000000    17.97000000
   C     70.44000000    60.90000000    16.46000000
   C     71.94000000    61.46000000    18.35000000
   C     70.94000000    59.55000000    15.96000000
   H     68.61000000    58.55000000    18.20000000
   H     70.58000000    59.21000000    18.77000000
   H     69.95000000    62.07000000    18.09000000
   H     70.98000000    61.73000000    15.98000000
   H     69.43000000    61.11000000    16.11000000
   H     72.07000000    61.45000000    19.43000000
   H     72.67000000    60.72000000    18.03000000
   H     72.21000000    62.43000000    17.93000000
   H     70.54000000    58.82000000    16.66000000
   H     70.62000000    59.38000000    14.93000000
   H     72.03000000    59.64000000    16.00000000
   N     70.47000000    59.93000000    21.20000000
   C     70.80000000    58.52000000    21.14000000
   C     72.22000000    58.25000000    20.68000000
   O     72.41000000    57.27000000    19.96000000
   C     70.48000000    57.96000000    22.52000000
   C     71.02000000    58.70000000    23.73000000
   O     70.76000000    58.22000000    24.85000000
   O     71.71000000    59.74000000    23.62000000
   H     70.53000000    60.39000000    22.09000000
   H     70.10000000    58.02000000    20.48000000
   H     70.77000000    56.91000000    22.58000000
   H     69.39000000    57.88000000    22.62000000
   N     73.23000000    59.00000000    21.14000000
   C     74.63000000    58.77000000    20.84000000
   C     75.27000000    57.65000000    21.65000000
   O     74.70000000    57.30000000    22.68000000
   C     75.38000000    60.09000000    21.01000000
   C     75.38000000    60.69000000    22.39000000
   C     74.41000000    61.64000000    22.74000000
   C     76.48000000    60.41000000    23.21000000
   C     74.44000000    62.29000000    23.98000000
   C     76.53000000    61.05000000    24.46000000
   C     75.52000000    61.96000000    24.81000000
   H     73.04000000    59.73000000    21.80000000
   H     74.68000000    58.49000000    19.79000000
   H     74.82000000    60.79000000    20.39000000
   H     76.38000000    59.92000000    20.61000000
   H     73.60000000    61.86000000    22.06000000
   H     77.25000000    59.70000000    22.97000000
   H     73.62000000    62.93000000    24.26000000
   H     77.39000000    60.90000000    25.09000000
   H     75.53000000    62.41000000    25.79000000
   N     76.40000000    57.02000000    21.31000000
   C     77.13000000    57.00000000    20.06000000
   C     76.38000000    56.61000000    18.79000000
   O     75.16000000    56.49000000    18.71000000
   C     78.30000000    56.03000000    20.23000000
   C     78.51000000    55.91000000    21.74000000
   C     77.07000000    56.10000000    22.21000000
   H     77.54000000    57.99000000    19.89000000
   H     78.02000000    55.08000000    19.77000000
   H     79.15000000    56.43000000    19.68000000
   H     78.86000000    54.94000000    22.09000000
   H     79.22000000    56.70000000    21.96000000
   H     76.56000000    55.16000000    22.02000000
   H     76.98000000    56.42000000    23.25000000
   N     77.10000000    56.43000000    17.68000000
   C     76.49000000    56.44000000    16.37000000
   C     77.11000000    57.45000000    15.41000000
   O     77.32000000    57.11000000    14.24000000
   C     76.57000000    55.00000000    15.86000000
   C     75.83000000    53.98000000    16.72000000
   C     74.32000000    54.06000000    16.87000000
   O     73.75000000    53.30000000    17.68000000
   O     73.71000000    54.74000000    16.02000000
   H     78.10000000    56.45000000    17.82000000
   H     75.45000000    56.75000000    16.37000000
   H     77.59000000    54.67000000    15.65000000
   H     76.00000000    55.08000000    14.93000000
   H     76.27000000    54.08000000    17.72000000
   H     76.04000000    52.96000000    16.41000000
   N     77.39000000    58.72000000    15.71000000
   C     77.13000000    59.46000000    16.93000000
   H     76.09300000    59.31100000    17.23000000
   H     77.79100000    59.10300000    17.72000000
   H     77.30900000    60.52100000    16.75700000
   H     77.85000000    59.29000000    15.03000000
  Ca     72.22000000    63.59000000     9.51000000
   O     74.28000000    64.75000000     8.40000000
   H     74.49000000    64.50000000     7.50000000
   H     75.03000000    65.28000000     8.68000000
   O     73.74000000    61.30000000     8.86000000
   H     73.83000000    60.67000000     9.57000000
   H     73.90000000    60.80000000     8.07000000
   O     71.32000000    61.36000000    10.60000000
   H     71.00000000    61.23000000    11.49000000
   H     70.84000000    60.71000000    10.08000000
   O     74.49000000    63.73000000    11.12000000
   H     75.41000000    63.73000000    10.84000000
   H     74.47000000    64.34000000    11.86000000
   O     71.39000000    64.45000000    11.70000000
   H     70.99000000    64.11000000    12.50000000
   H     71.28000000    65.40000000    11.76000000

Ca 1.00



