%chk=loop1.apoCaM-CA-Ng.Init295.run68.water5.chk
%nprocshared=20
%mem=10GB
%nosave
#b3lyp/svp scf=(tight,noincore,xqc) Test 
#IOP(5/87=12) Density=Current Pop=(MK,readradii) iop(6/33=2) iop(6/42=6)

loop1.apoCaM-CA-Ng.Init295.run68.water5 

   0  1 
   C    -11.35000000    11.51000000    49.57000000
   C    -11.47000000    12.80000000    48.77000000
   O    -12.52000000    13.14000000    48.23000000
   H    -10.63300000    11.65000000    50.37900000
   H    -12.32200000    11.24900000    49.98800000
   H    -11.00800000    10.70700000    48.91700000
   N    -10.43000000    13.63000000    48.79000000
   C    -10.47000000    14.88000000    48.05000000
   C    -10.19000000    14.78000000    46.56000000
   O     -9.56000000    13.85000000    46.05000000
   C     -9.65000000    15.99000000    48.72000000
   C     -9.93000000    16.03000000    50.21000000
   O     -9.04000000    15.98000000    51.09000000
   O    -11.12000000    16.02000000    50.58000000
   H     -9.54000000    13.36000000    49.17000000
   H    -11.48000000    15.28000000    48.11000000
   H    -10.09000000    16.92000000    48.36000000
   H     -8.58000000    15.86000000    48.60000000
   N    -10.59000000    15.83000000    45.84000000
   C    -10.42000000    16.06000000    44.42000000
   C     -9.24000000    16.99000000    44.18000000
   O     -8.48000000    16.68000000    43.27000000
   C    -11.69000000    16.75000000    43.93000000
   C    -13.00000000    15.97000000    44.00000000
   C    -13.84000000    16.10000000    45.27000000
   C    -15.28000000    15.75000000    44.92000000
   N    -16.14000000    16.03000000    46.08000000
   H    -11.00000000    16.60000000    46.36000000
   H    -10.27000000    15.11000000    43.91000000
   H    -11.50000000    16.91000000    42.87000000
   H    -11.83000000    17.73000000    44.39000000
   H    -12.79000000    14.93000000    43.74000000
   H    -13.65000000    16.34000000    43.20000000
   H    -13.79000000    17.15000000    45.54000000
   H    -13.49000000    15.49000000    46.10000000
   H    -15.31000000    14.69000000    44.66000000
   H    -15.63000000    16.35000000    44.08000000
   H    -15.83000000    15.52000000    46.89000000
   H    -16.09000000    17.01000000    46.32000000
   H    -17.09000000    15.83000000    45.83000000
   N     -9.08000000    18.06000000    44.95000000
   C     -7.82000000    18.67000000    45.33000000
   C     -7.80000000    18.63000000    46.85000000
   O     -8.75000000    19.09000000    47.49000000
   C     -7.76000000    20.10000000    44.79000000
   C     -6.59000000    20.92000000    45.32000000
   O     -5.53000000    20.40000000    45.72000000
   O     -6.62000000    22.16000000    45.22000000
   H     -9.90000000    18.26000000    45.50000000
   H     -6.94000000    18.16000000    44.93000000
   H     -8.57000000    20.82000000    44.93000000
   H     -7.70000000    19.99000000    43.71000000
   N     -6.71000000    18.16000000    47.46000000
   C     -6.38000000    18.40000000    48.85000000
   C     -4.93000000    18.71000000    49.21000000
   O     -3.96000000    18.25000000    48.61000000
   H     -5.99000000    17.74000000    46.89000000
   H     -6.64000000    17.51000000    49.44000000
   H     -7.10000000    19.16000000    49.14000000
   N     -4.86000000    19.48000000    50.30000000
   C     -3.65000000    20.11000000    50.77000000
   C     -3.61000000    20.07000000    52.29000000
   O     -2.91000000    20.89000000    52.88000000
   C     -3.73000000    21.58000000    50.36000000
   C     -3.90000000    21.87000000    48.88000000
   O     -3.02000000    21.41000000    48.12000000
   O     -4.82000000    22.62000000    48.48000000
   H     -5.68000000    19.52000000    50.89000000
   H     -2.73000000    19.66000000    50.38000000
   H     -2.82000000    22.05000000    50.71000000
   H     -4.55000000    22.07000000    50.89000000
   N     -4.29000000    19.17000000    53.00000000
   C     -4.27000000    19.02000000    54.44000000
   C     -3.52000000    17.81000000    54.97000000
   O     -2.53000000    17.37000000    54.38000000
   H     -4.81000000    18.50000000    52.44000000
   H     -5.26000000    18.70000000    54.77000000
   H     -3.97000000    19.93000000    54.96000000
   N     -4.16000000    17.02000000    55.84000000
   C     -3.56000000    15.77000000    56.26000000
   C     -2.41000000    15.80000000    57.25000000
   O     -2.49000000    16.53000000    58.25000000
   C     -4.65000000    14.84000000    56.79000000
   C     -5.31000000    15.20000000    58.12000000
   O     -5.68000000    14.79000000    55.82000000
   H     -5.14000000    17.17000000    56.05000000
   H     -3.20000000    15.23000000    55.39000000
   H     -4.15000000    13.88000000    56.86000000
   H     -5.33000000    14.23000000    55.12000000
   H     -6.11000000    14.48000000    58.30000000
   H     -4.55000000    15.11000000    58.90000000
   H     -5.69000000    16.21000000    57.99000000
   N     -1.32000000    15.06000000    57.02000000
   C     -0.11000000    15.06000000    57.81000000
   C      1.05000000    15.83000000    57.18000000
   O      1.90000000    16.36000000    57.89000000
   C      0.26000000    13.74000000    58.48000000
   C      0.98000000    12.83000000    57.48000000
   C     -0.98000000    13.10000000    59.11000000
   C      1.63000000    11.63000000    58.16000000
   H     -1.30000000    14.47000000    56.20000000
   H     -0.34000000    15.64000000    58.70000000
   H      0.84000000    13.85000000    59.39000000
   H      1.77000000    13.39000000    56.98000000
   H      0.30000000    12.61000000    56.66000000
   H     -1.67000000    12.78000000    58.33000000
   H     -0.71000000    12.25000000    59.73000000
   H     -1.49000000    13.88000000    59.68000000
   H      2.30000000    11.93000000    58.96000000
   H      0.96000000    10.92000000    58.64000000
   H      2.25000000    11.19000000    57.37000000
   N      1.14000000    15.94000000    55.85000000
   C      2.07000000    16.76000000    55.12000000
   C      2.96000000    15.92000000    54.22000000
   O      2.55000000    14.82000000    53.83000000
   C      1.44000000    17.95000000    54.41000000
   C      1.04000000    17.79000000    52.94000000
   O      0.25000000    18.18000000    55.14000000
   H      0.39000000    15.49000000    55.34000000
   H      2.75000000    17.27000000    55.80000000
   H      2.03000000    18.85000000    54.61000000
   H     -0.52000000    17.95000000    54.63000000
   H      0.72000000    16.75000000    52.86000000
   H      0.22000000    18.48000000    52.69000000
   H      1.93000000    17.96000000    52.33000000
   N      4.15000000    16.41000000    53.85000000
   C      5.06000000    15.73000000    52.95000000
   C      5.79000000    14.54000000    53.56000000
   O      6.44000000    13.72000000    52.91000000
   C      6.00000000    16.72000000    52.27000000
   C      7.12000000    16.26000000    51.34000000
   O      6.72000000    17.41000000    53.26000000
   H      4.50000000    17.31000000    54.17000000
   H      4.50000000    15.35000000    52.09000000
   H      5.43000000    17.42000000    51.67000000
   H      7.23000000    18.09000000    52.80000000
   H      7.70000000    17.12000000    51.02000000
   H      7.85000000    15.71000000    51.94000000
   H      6.65000000    15.61000000    50.60000000
   N      5.49000000    14.32000000    54.84000000
   C      6.06000000    13.36000000    55.77000000
   C      5.41000000    12.02000000    55.44000000
   O      4.38000000    11.90000000    54.79000000
   C      6.03000000    13.73000000    57.25000000
   C      4.66000000    13.67000000    57.92000000
   C      4.81000000    14.00000000    59.40000000
   C      5.50000000    15.33000000    59.69000000
   N      5.31000000    15.85000000    61.05000000
   H      4.77000000    14.86000000    55.30000000
   H      7.10000000    13.13000000    55.54000000
   H      6.32000000    14.78000000    57.31000000
   H      6.75000000    13.10000000    57.77000000
   H      4.43000000    12.60000000    57.92000000
   H      3.93000000    14.38000000    57.53000000
   H      5.44000000    13.22000000    59.84000000
   H      3.81000000    14.04000000    59.82000000
   H      5.26000000    16.11000000    58.97000000
   H      6.58000000    15.19000000    59.61000000
   H      4.36000000    16.14000000    61.23000000
   H      5.48000000    15.16000000    61.77000000
   H      5.90000000    16.64000000    61.29000000
   N      5.99000000    10.92000000    55.93000000
   C      5.41000000     9.60000000    56.05000000
   C      5.69000000     8.79000000    54.78000000
   O      6.84000000     8.54000000    54.43000000
   C      5.96000000     8.83000000    57.24000000
   C      5.71000000     9.49000000    58.60000000
   C      6.19000000     8.52000000    59.67000000
   O      7.43000000     8.40000000    59.80000000
   O      5.31000000     7.89000000    60.30000000
   H      6.91000000    11.11000000    56.31000000
   H      4.33000000     9.70000000    56.11000000
   H      7.03000000     8.64000000    57.15000000
   H      5.46000000     7.87000000    57.37000000
   H      4.64000000     9.71000000    58.60000000
   H      6.11000000    10.50000000    58.62000000
   N      4.70000000     8.38000000    53.98000000
   C      3.27000000     8.58000000    53.92000000
   H      2.79500000     8.05200000    54.74700000
   H      3.04800000     9.64500000    53.99400000
   H      2.88800000     8.19400000    52.97500000
   H      5.02000000     7.77000000    53.23000000
  Ca     -4.10800000    22.60000000    45.95000000
   O     -2.35800000    24.58000000    46.70000000
   H     -1.44800000    24.42000000    46.45000000
   H     -2.31800000    25.41000000    47.19000000
   O     -3.85800000    24.20000000    43.78000000
   H     -4.16800000    25.02000000    43.41000000
   H     -3.14800000    23.93000000    43.20000000
   O     -5.30800000    24.98000000    46.36000000
   H     -5.58800000    25.21000000    45.47000000
   H     -5.31800000    25.81000000    46.84000000
   O     -4.05800000    21.28000000    43.55000000
   H     -3.35800000    21.39000000    42.90000000
   H     -4.84800000    21.17000000    43.02000000
   O     -1.48800000    22.04000000    45.16000000
   H     -0.74800000    22.65000000    45.23000000
   H     -1.08800000    21.21000000    44.89000000

Ca 1.00



