%chk=loop4.apoCaM-CA-Ng.Init293.run54.water3.chk
%nprocshared=20
%mem=10GB
%nosave
#b3lyp/svp scf=(tight,noincore,xqc) Test 
#IOP(5/87=12) Density=Current Pop=(MK,readradii) iop(6/33=2) iop(6/42=6)

loop4.apoCaM-CA-Ng.Init293.run54.water3 

   -3  1 
   C     42.06000000    61.06000000    87.72000000
   C     40.73000000    60.33000000    87.67000000
   O     39.77000000    60.78000000    88.31000000
   H     42.80500000    60.49600000    87.15900000
   H     41.94800000    62.05100000    87.28000000
   H     42.38300000    61.15700000    88.75600000
   N     40.61000000    59.27000000    86.87000000
   C     39.53000000    58.30000000    86.76000000
   C     38.29000000    58.84000000    86.06000000
   O     37.42000000    58.07000000    85.67000000
   C     39.42000000    57.47000000    88.04000000
   C     38.82000000    58.23000000    89.21000000
   O     37.79000000    58.94000000    89.17000000
   O     39.43000000    58.18000000    90.30000000
   H     41.45000000    58.98000000    86.39000000
   H     39.91000000    57.55000000    86.07000000
   H     40.41000000    57.16000000    88.40000000
   H     38.82000000    56.57000000    87.90000000
   N     38.19000000    60.15000000    85.84000000
   C     37.02000000    60.90000000    85.41000000
   C     36.04000000    60.92000000    86.57000000
   O     36.47000000    61.15000000    87.70000000
   C     37.36000000    62.26000000    84.83000000
   C     38.23000000    62.16000000    83.58000000
   C     37.97000000    63.25000000    85.82000000
   C     38.45000000    63.49000000    82.87000000
   H     39.05000000    60.63000000    86.05000000
   H     36.61000000    60.26000000    84.62000000
   H     36.43000000    62.71000000    84.48000000
   H     37.68000000    61.55000000    82.86000000
   H     39.19000000    61.69000000    83.77000000
   H     39.02000000    62.98000000    85.87000000
   H     37.75000000    64.23000000    85.40000000
   H     37.56000000    63.09000000    86.82000000
   H     39.20000000    64.09000000    83.39000000
   H     38.67000000    63.17000000    81.85000000
   H     37.53000000    64.08000000    82.81000000
   N     34.75000000    60.70000000    86.28000000
   C     33.63000000    60.83000000    87.19000000
   C     33.57000000    59.67000000    88.18000000
   O     33.70000000    58.51000000    87.79000000
   C     32.31000000    60.93000000    86.43000000
   C     31.99000000    59.82000000    85.44000000
   O     31.16000000    58.93000000    85.71000000
   O     32.48000000    59.95000000    84.29000000
   H     34.54000000    60.30000000    85.38000000
   H     33.79000000    61.78000000    87.68000000
   H     32.24000000    61.82000000    85.81000000
   H     31.44000000    60.98000000    87.10000000
   N     33.32000000    59.89000000    89.47000000
   C     32.89000000    61.05000000    90.22000000
   C     33.94000000    62.15000000    90.31000000
   O     35.10000000    61.83000000    90.08000000
   H     33.07000000    59.03000000    89.94000000
   H     32.59000000    60.79000000    91.24000000
   H     31.99000000    61.45000000    89.75000000
   N     33.58000000    63.41000000    90.57000000
   C     32.37000000    63.82000000    91.25000000
   C     31.09000000    63.62000000    90.46000000
   O     30.10000000    63.17000000    91.04000000
   C     32.48000000    65.29000000    91.64000000
   C     31.28000000    65.63000000    92.52000000
   O     30.15000000    65.90000000    92.06000000
   O     31.54000000    65.58000000    93.74000000
   H     34.21000000    64.17000000    90.37000000
   H     32.34000000    63.24000000    92.18000000
   H     32.54000000    65.93000000    90.75000000
   H     33.48000000    65.49000000    92.02000000
   N     30.98000000    63.83000000    89.14000000
   C     32.01000000    64.34000000    88.26000000
   C     31.26000000    65.14000000    87.21000000
   O     30.44000000    64.60000000    86.47000000
   H     30.04000000    63.58000000    88.85000000
   H     32.49000000    63.50000000    87.77000000
   H     32.70000000    64.95000000    88.85000000
   N     31.75000000    66.38000000    87.10000000
   C     31.15000000    67.36000000    86.22000000
   C     32.21000000    68.07000000    85.39000000
   O     31.93000000    69.10000000    84.78000000
   C     30.26000000    68.32000000    87.01000000
   C     30.91000000    69.06000000    88.17000000
   C     29.88000000    69.73000000    89.07000000
   N     29.56000000    69.09000000    90.19000000
   O     29.54000000    70.90000000    88.91000000
   H     32.46000000    66.77000000    87.70000000
   H     30.52000000    66.83000000    85.50000000
   H     29.47000000    67.70000000    87.43000000
   H     29.85000000    69.07000000    86.32000000
   H     31.60000000    69.78000000    87.73000000
   H     31.53000000    68.40000000    88.78000000
   H     29.78000000    68.10000000    90.28000000
   H     28.87000000    69.49000000    90.80000000
   N     33.40000000    67.46000000    85.40000000
   C     34.60000000    67.95000000    84.76000000
   C     35.72000000    67.79000000    85.79000000
   O     35.94000000    66.75000000    86.39000000
   C     34.71000000    67.10000000    83.50000000
   C     36.05000000    67.29000000    82.80000000
   C     33.72000000    67.57000000    82.44000000
   H     33.38000000    66.59000000    85.90000000
   H     34.46000000    69.00000000    84.50000000
   H     34.56000000    66.05000000    83.75000000
   H     36.11000000    66.92000000    81.78000000
   H     36.34000000    68.33000000    82.95000000
   H     36.76000000    66.73000000    83.40000000
   H     33.85000000    68.64000000    82.27000000
   H     33.78000000    67.07000000    81.48000000
   H     32.66000000    67.39000000    82.63000000
   N     36.54000000    68.85000000    85.84000000
   C     37.64000000    68.99000000    86.78000000
   C     37.23000000    69.49000000    88.16000000
   O     38.07000000    69.58000000    89.05000000
   C     38.71000000    69.82000000    86.08000000
   C     39.94000000    70.17000000    86.91000000
   N     40.04000000    71.43000000    87.35000000
   O     40.78000000    69.34000000    87.22000000
   H     36.36000000    69.69000000    85.32000000
   H     38.12000000    68.01000000    86.85000000
   H     38.39000000    70.78000000    85.66000000
   H     39.03000000    69.32000000    85.16000000
   H     39.33000000    72.11000000    87.11000000
   H     40.88000000    71.80000000    87.78000000
   N     35.94000000    69.75000000    88.38000000
   C     35.54000000    70.24000000    89.68000000
   C     35.89000000    69.32000000    90.84000000
   O     35.56000000    68.14000000    90.78000000
   C     34.02000000    70.40000000    89.70000000
   C     33.54000000    71.02000000    90.99000000
   C     32.52000000    70.42000000    91.76000000
   C     34.04000000    72.24000000    91.44000000
   C     31.85000000    71.08000000    92.80000000
   C     33.33000000    72.99000000    92.39000000
   C     32.27000000    72.38000000    93.11000000
   O     31.62000000    73.09000000    94.07000000
   H     35.34000000    69.86000000    87.57000000
   H     36.02000000    71.20000000    89.84000000
   H     33.53000000    69.43000000    89.72000000
   H     33.71000000    70.99000000    88.84000000
   H     32.27000000    69.41000000    91.47000000
   H     34.83000000    72.76000000    90.93000000
   H     31.02000000    70.62000000    93.31000000
   H     33.59000000    74.02000000    92.60000000
   H     31.00000000    72.51000000    94.52000000
   N     36.64000000    69.78000000    91.85000000
   C     37.22000000    69.04000000    92.95000000
   C     38.26000000    67.97000000    92.63000000
   O     38.66000000    67.21000000    93.51000000
   C     36.19000000    68.53000000    93.95000000
   C     35.30000000    69.63000000    94.52000000
   C     34.34000000    69.13000000    95.59000000
   O     33.90000000    67.97000000    95.54000000
   O     34.05000000    69.94000000    96.50000000
   H     37.04000000    70.71000000    91.74000000
   H     37.80000000    69.80000000    93.46000000
   H     36.66000000    68.20000000    94.88000000
   H     35.50000000    67.74000000    93.68000000
   H     34.69000000    70.14000000    93.77000000
   H     36.02000000    70.36000000    94.89000000
   N     38.79000000    67.90000000    91.40000000
   C     39.88000000    67.06000000    90.96000000
   C     41.15000000    67.81000000    91.33000000
   O     42.18000000    67.14000000    91.41000000
   C     39.93000000    66.61000000    89.51000000
   C     38.77000000    65.82000000    88.91000000
   C     38.73000000    64.40000000    89.45000000
   O     37.64000000    63.84000000    89.18000000
   O     39.64000000    63.87000000    90.12000000
   H     38.34000000    68.45000000    90.68000000
   H     39.90000000    66.12000000    91.53000000
   H     40.85000000    66.06000000    89.31000000
   H     40.02000000    67.56000000    88.98000000
   H     38.94000000    65.64000000    87.85000000
   H     37.82000000    66.32000000    89.09000000
   N     41.11000000    69.12000000    91.58000000
   C     42.07000000    69.81000000    92.42000000
   H     42.94400000    70.07800000    91.82700000
   H     41.61500000    70.71400000    92.82500000
   H     42.37300000    69.15700000    93.23800000
   H     40.39000000    69.72000000    91.22000000
  Ca     37.76000000    61.44000000    90.06000000
   O     36.67000000    59.58000000    91.90000000
   H     37.32000000    58.93000000    92.19000000
   H     35.97000000    59.05000000    91.51000000
   O     37.46000000    62.44000000    92.37000000
   H     36.57000000    62.67000000    92.66000000
   H     37.99000000    62.48000000    93.16000000
   O     39.91000000    61.08000000    91.80000000
   H     40.50000000    61.74000000    92.17000000
   H     40.49000000    60.36000000    91.54000000

Ca 1.00



