%chk=loop2.holoCaM-CaMKII.run69.water2.chk
%nprocshared=20
%mem=10GB
%nosave
#b3lyp/svp scf=(tight,noincore,xqc) Test 
#IOP(5/87=12) Density=Current Pop=(MK,readradii) iop(6/33=2) iop(6/42=6)

loop2.holoCaM-CaMKII.run69.water2 

   -2  1 
   C     11.43000000    62.45000000    -0.04000000
   C     11.25000000    62.90000000    -1.48000000
   O     12.27000000    62.90000000    -2.18000000
   H     12.10500000    63.13500000     0.47300000
   H     10.46400000    62.44800000     0.46400000
   H     11.85200000    61.44500000    -0.02300000
   N     10.09000000    63.31000000    -1.98000000
   C      9.88000000    63.67000000    -3.37000000
   C     10.64000000    64.95000000    -3.71000000
   O     10.45000000    66.01000000    -3.13000000
   C      8.40000000    63.96000000    -3.59000000
   C      7.97000000    63.82000000    -5.04000000
   O      8.81000000    63.62000000    -5.94000000
   O      6.74000000    63.87000000    -5.27000000
   H      9.27000000    63.17000000    -1.41000000
   H     10.23000000    62.89000000    -4.06000000
   H      8.06000000    64.94000000    -3.25000000
   H      7.85000000    63.24000000    -2.99000000
   N     11.46000000    64.88000000    -4.76000000
   C     11.94000000    66.07000000    -5.44000000
   C     11.12000000    66.71000000    -6.55000000
   O     11.43000000    67.83000000    -6.95000000
   C     13.39000000    65.80000000    -5.85000000
   H     11.57000000    64.00000000    -5.24000000
   H     12.00000000    66.83000000    -4.67000000
   H     13.37000000    64.96000000    -6.55000000
   H     13.78000000    66.73000000    -6.27000000
   H     13.91000000    65.63000000    -4.91000000
   N     10.12000000    66.03000000    -7.11000000
   C      9.68000000    66.21000000    -8.48000000
   C      8.27000000    65.90000000    -8.93000000
   O      7.84000000    66.41000000    -9.96000000
   C     10.74000000    65.43000000    -9.26000000
   C     10.71000000    63.91000000    -9.22000000
   O      9.73000000    63.27000000    -8.79000000
   O     11.77000000    63.37000000    -9.61000000
   H      9.82000000    65.19000000    -6.64000000
   H      9.78000000    67.28000000    -8.64000000
   H     11.73000000    65.78000000    -8.99000000
   H     10.75000000    65.69000000   -10.32000000
   N      7.47000000    65.16000000    -8.15000000
   C      6.10000000    64.80000000    -8.44000000
   C      5.88000000    63.63000000    -9.39000000
   O      4.75000000    63.30000000    -9.75000000
   H      7.95000000    64.89000000    -7.31000000
   H      5.59000000    65.70000000    -8.79000000
   H      5.57000000    64.66000000    -7.49000000
   N      6.91000000    62.93000000    -9.87000000
   C      6.78000000    61.98000000   -10.95000000
   C      6.14000000    60.64000000   -10.60000000
   O      6.11000000    59.72000000   -11.42000000
   C      8.21000000    61.81000000   -11.46000000
   C      9.12000000    60.88000000   -10.66000000
   N     10.27000000    60.50000000   -11.21000000
   O      8.88000000    60.53000000    -9.51000000
   H      7.84000000    62.95000000    -9.48000000
   H      6.20000000    62.38000000   -11.79000000
   H      8.74000000    62.76000000   -11.55000000
   H      8.14000000    61.48000000   -12.49000000
   H     10.62000000    60.86000000   -12.09000000
   H     10.91000000    59.89000000   -10.73000000
   N      5.77000000    60.44000000    -9.33000000
   C      4.71000000    59.55000000    -8.90000000
   C      5.28000000    58.28000000    -8.28000000
   O      4.53000000    57.31000000    -8.17000000
   H      6.12000000    61.17000000    -8.73000000
   H      4.01000000    59.30000000    -9.69000000
   H      4.06000000    60.04000000    -8.17000000
   N      6.58000000    58.29000000    -7.97000000
   C      7.43000000    57.15000000    -7.71000000
   C      8.55000000    57.63000000    -6.80000000
   O      8.92000000    58.79000000    -6.99000000
   C      7.98000000    56.44000000    -8.94000000
   C      6.90000000    55.73000000    -9.77000000
   O      8.57000000    57.33000000    -9.86000000
   H      7.00000000    59.20000000    -8.08000000
   H      6.86000000    56.41000000    -7.15000000
   H      8.66000000    55.65000000    -8.63000000
   H      9.00000000    58.05000000    -9.39000000
   H      6.13000000    56.35000000   -10.21000000
   H      7.43000000    55.06000000   -10.44000000
   H      6.28000000    55.11000000    -9.13000000
   N      9.08000000    56.82000000    -5.88000000
   C     10.36000000    57.05000000    -5.24000000
   C     11.36000000    56.99000000    -6.39000000
   O     11.31000000    56.04000000    -7.17000000
   C     10.85000000    56.07000000    -4.17000000
   C      9.89000000    55.93000000    -3.00000000
   C     12.22000000    56.52000000    -3.68000000
   C     10.15000000    54.79000000    -2.01000000
   H      8.84000000    55.85000000    -6.01000000
   H     10.31000000    58.03000000    -4.79000000
   H     10.96000000    55.11000000    -4.68000000
   H      8.84000000    55.87000000    -3.31000000
   H      9.85000000    56.80000000    -2.34000000
   H     12.27000000    57.60000000    -3.69000000
   H     12.34000000    56.13000000    -2.66000000
   H     12.99000000    55.96000000    -4.22000000
   H     11.08000000    54.97000000    -1.47000000
   H      9.29000000    54.60000000    -1.38000000
   H     10.28000000    53.95000000    -2.69000000
   N     12.40000000    57.83000000    -6.39000000
   C     13.55000000    57.69000000    -7.26000000
   C     14.79000000    57.34000000    -6.45000000
   O     14.70000000    57.39000000    -5.23000000
   C     13.70000000    58.96000000    -8.09000000
   C     12.46000000    59.28000000    -8.92000000
   O     11.54000000    59.97000000    -8.42000000
   O     12.42000000    59.02000000   -10.14000000
   H     12.52000000    58.46000000    -5.61000000
   H     13.43000000    56.86000000    -7.95000000
   H     14.51000000    58.89000000    -8.81000000
   H     13.94000000    59.80000000    -7.43000000
   N     15.88000000    56.89000000    -7.07000000
   C     17.11000000    56.56000000    -6.38000000
   C     17.73000000    57.72000000    -5.61000000
   O     18.07000000    57.49000000    -4.45000000
   C     18.11000000    55.83000000    -7.27000000
   C     19.44000000    55.65000000    -6.58000000
   C     20.42000000    56.60000000    -6.87000000
   C     19.64000000    54.57000000    -5.70000000
   C     21.70000000    56.40000000    -6.33000000
   C     20.92000000    54.38000000    -5.18000000
   C     21.93000000    55.29000000    -5.50000000
   H     15.87000000    56.70000000    -8.06000000
   H     16.83000000    55.80000000    -5.65000000
   H     18.40000000    56.46000000    -8.11000000
   H     17.77000000    54.83000000    -7.56000000
   H     20.26000000    57.36000000    -7.62000000
   H     18.80000000    53.94000000    -5.45000000
   H     22.53000000    57.07000000    -6.52000000
   H     21.08000000    53.52000000    -4.54000000
   H     22.94000000    55.10000000    -5.18000000
   N     17.75000000    58.97000000    -6.07000000
   C     18.27000000    60.04000000    -5.24000000
   C     17.45000000    60.30000000    -3.98000000
   O     18.04000000    60.54000000    -2.93000000
   C     18.35000000    61.26000000    -6.15000000
   C     18.40000000    60.73000000    -7.59000000
   C     17.61000000    59.44000000    -7.43000000
   H     19.27000000    59.70000000    -4.97000000
   H     17.52000000    61.93000000    -5.93000000
   H     19.30000000    61.72000000    -5.90000000
   H     18.20000000    61.40000000    -8.43000000
   H     19.42000000    60.36000000    -7.67000000
   H     16.54000000    59.55000000    -7.62000000
   H     18.06000000    58.77000000    -8.17000000
   N     16.14000000    60.09000000    -4.06000000
   C     15.20000000    60.25000000    -2.97000000
   C     15.36000000    59.16000000    -1.91000000
   O     15.22000000    59.31000000    -0.70000000
   C     13.79000000    60.22000000    -3.55000000
   C     13.66000000    61.28000000    -4.64000000
   C     12.29000000    61.46000000    -5.26000000
   O     12.07000000    62.41000000    -6.04000000
   O     11.38000000    60.61000000    -5.14000000
   H     15.75000000    59.73000000    -4.92000000
   H     15.43000000    61.17000000    -2.43000000
   H     13.09000000    60.37000000    -2.73000000
   H     13.55000000    59.27000000    -4.02000000
   H     14.26000000    60.99000000    -5.50000000
   H     14.05000000    62.26000000    -4.35000000
   N     15.90000000    58.04000000    -2.38000000
   C     16.31000000    56.92000000    -1.55000000
   H     17.21000000    57.18900000    -0.99700000
   H     15.51300000    56.67600000    -0.84800000
   H     16.51600000    56.05600000    -2.18100000
   H     15.97000000    57.88000000    -3.38000000
  Ca      9.78000000    61.36000000    -7.12400000
   O      8.91000000    60.72000000    -4.17400000
   H      9.86000000    60.58000000    -4.21400000
   H      8.68000000    60.54000000    -3.26400000
   O      6.96000000    61.66000000    -6.92400000
   H      6.25000000    61.20000000    -6.47400000
   H      6.96000000    62.53000000    -6.52400000

Ca 1.00



