%chk=loop3.apoCaM-CA-Ng.Init295.run42.water3.chk
%nprocshared=20
%mem=10GB
%nosave
#b3lyp/svp scf=(tight,noincore,xqc) Test 
#IOP(5/87=12) Density=Current Pop=(MK,readradii) iop(6/33=2) iop(6/42=6)

loop3.apoCaM-CA-Ng.Init295.run42.water3 

   0  1 
   C     84.02000000    26.32000000    56.38000000
   C     83.15000000    25.32000000    57.12000000
   O     81.99000000    25.61000000    57.42000000
   H     84.98400000    25.86400000    56.15400000
   H     83.53000000    26.61200000    55.45100000
   H     84.17300000    27.20100000    57.00300000
   N     83.72000000    24.18000000    57.52000000
   C     83.10000000    23.08000000    58.23000000
   C     84.13000000    22.52000000    59.20000000
   O     85.32000000    22.62000000    58.91000000
   C     82.69000000    21.99000000    57.25000000
   C     81.99000000    20.89000000    58.04000000
   O     80.75000000    20.72000000    58.01000000
   O     82.71000000    20.06000000    58.65000000
   H     84.65000000    24.03000000    57.18000000
   H     82.22000000    23.46000000    58.75000000
   H     83.60000000    21.62000000    56.79000000
   H     81.99000000    22.32000000    56.48000000
   N     83.80000000    22.18000000    60.45000000
   C     84.73000000    21.97000000    61.54000000
   C     85.60000000    20.73000000    61.38000000
   O     86.72000000    20.82000000    61.89000000
   C     83.88000000    21.88000000    62.81000000
   C     84.59000000    21.66000000    64.14000000
   C     85.12000000    22.95000000    64.76000000
   C     85.90000000    23.87000000    63.83000000
   N     86.60000000    24.93000000    64.58000000
   H     82.84000000    22.44000000    60.61000000
   H     85.44000000    22.80000000    61.51000000
   H     83.11000000    21.12000000    62.68000000
   H     83.30000000    22.79000000    63.00000000
   H     85.42000000    20.95000000    64.05000000
   H     83.80000000    21.32000000    64.81000000
   H     85.75000000    22.58000000    65.57000000
   H     84.35000000    23.58000000    65.22000000
   H     85.28000000    24.35000000    63.07000000
   H     86.65000000    23.25000000    63.34000000
   H     85.92000000    25.54000000    65.01000000
   H     87.23000000    24.60000000    65.29000000
   H     87.22000000    25.59000000    64.12000000
   N     85.19000000    19.66000000    60.71000000
   C     85.96000000    18.47000000    60.40000000
   C     86.44000000    18.58000000    58.96000000
   O     87.47000000    17.99000000    58.66000000
   C     85.09000000    17.26000000    60.73000000
   C     83.73000000    17.30000000    60.05000000
   O     83.48000000    17.18000000    58.83000000
   O     82.80000000    17.54000000    60.85000000
   H     84.26000000    19.73000000    60.32000000
   H     86.86000000    18.43000000    61.02000000
   H     85.03000000    17.30000000    61.82000000
   H     85.61000000    16.34000000    60.48000000
   N     85.68000000    19.30000000    58.13000000
   C     85.85000000    19.50000000    56.70000000
   C     84.94000000    18.69000000    55.78000000
   O     85.41000000    18.46000000    54.67000000
   H     84.96000000    19.84000000    58.59000000
   H     86.86000000    19.22000000    56.42000000
   H     85.80000000    20.58000000    56.55000000
   N     83.75000000    18.26000000    56.21000000
   C     82.84000000    17.52000000    55.36000000
   C     81.44000000    18.11000000    55.49000000
   O     81.00000000    18.22000000    56.63000000
   C     82.84000000    16.07000000    55.83000000
   C     84.23000000    15.46000000    55.78000000
   N     84.88000000    15.52000000    56.94000000
   O     84.64000000    14.90000000    54.76000000
   H     83.46000000    18.48000000    57.15000000
   H     83.11000000    17.65000000    54.32000000
   H     82.30000000    15.43000000    55.12000000
   H     82.33000000    15.96000000    56.79000000
   H     84.48000000    16.07000000    57.69000000
   H     85.80000000    15.10000000    57.03000000
   N     80.70000000    18.57000000    54.48000000
   C     79.76000000    19.66000000    54.68000000
   C     78.47000000    19.43000000    55.44000000
   O     77.84000000    20.44000000    55.75000000
   H     81.11000000    18.37000000    53.58000000
   H     79.52000000    20.07000000    53.70000000
   H     80.36000000    20.44000000    55.16000000
   N     78.19000000    18.17000000    55.78000000
   C     77.15000000    17.67000000    56.66000000
   C     77.28000000    18.35000000    58.02000000
   O     78.33000000    18.40000000    58.66000000
   C     77.16000000    16.14000000    56.71000000
   C     77.08000000    15.58000000    55.31000000
   C     78.18000000    14.96000000    54.71000000
   C     75.87000000    15.58000000    54.60000000
   C     78.12000000    14.24000000    53.51000000
   C     75.81000000    14.99000000    53.33000000
   C     76.92000000    14.34000000    52.77000000
   O     76.90000000    13.62000000    51.61000000
   H     78.94000000    17.53000000    55.56000000
   H     76.22000000    18.02000000    56.22000000
   H     76.38000000    15.80000000    57.38000000
   H     78.04000000    15.71000000    57.19000000
   H     79.11000000    14.98000000    55.26000000
   H     74.99000000    15.91000000    55.14000000
   H     79.00000000    13.70000000    53.19000000
   H     74.90000000    14.93000000    52.74000000
   H     76.17000000    13.74000000    51.01000000
   N     76.14000000    18.77000000    58.57000000
   C     75.76000000    19.34000000    59.85000000
   C     76.21000000    18.54000000    61.06000000
   O     77.21000000    17.84000000    61.11000000
   C     76.05000000    20.83000000    59.90000000
   C     75.45000000    21.60000000    58.72000000
   C     77.55000000    21.11000000    59.87000000
   C     74.00000000    21.27000000    58.39000000
   H     75.32000000    18.74000000    57.98000000
   H     74.68000000    19.31000000    59.97000000
   H     75.62000000    21.01000000    60.88000000
   H     76.09000000    21.57000000    57.84000000
   H     75.51000000    22.65000000    59.03000000
   H     78.15000000    20.35000000    60.37000000
   H     77.92000000    21.24000000    58.86000000
   H     77.74000000    21.96000000    60.53000000
   H     73.86000000    20.26000000    58.02000000
   H     73.32000000    21.37000000    59.24000000
   H     73.58000000    21.92000000    57.62000000
   N     75.54000000    18.71000000    62.21000000
   C     75.81000000    18.22000000    63.55000000
   C     74.62000000    17.66000000    64.31000000
   O     74.85000000    17.20000000    65.43000000
   C     76.57000000    19.30000000    64.30000000
   O     75.85000000    20.51000000    64.36000000
   H     74.77000000    19.37000000    62.20000000
   H     76.49000000    17.37000000    63.55000000
   H     77.44000000    19.47000000    63.67000000
   H     76.88000000    18.98000000    65.30000000
   H     76.21000000    21.19000000    63.79000000
   N     73.41000000    17.70000000    63.76000000
   C     72.18000000    17.11000000    64.26000000
   C     71.83000000    17.42000000    65.71000000
   O     71.57000000    16.59000000    66.59000000
   C     72.15000000    15.60000000    64.03000000
   H     73.37000000    18.11000000    62.83000000
   H     71.30000000    17.53000000    63.78000000
   H     71.23000000    15.13000000    64.39000000
   H     72.21000000    15.41000000    62.96000000
   H     72.92000000    15.04000000    64.56000000
   N     71.76000000    18.69000000    66.11000000
   C     71.88000000    19.92000000    65.36000000
   C     70.55000000    20.66000000    65.33000000
   O     69.57000000    20.25000000    65.95000000
   C     73.03000000    20.79000000    65.88000000
   H     71.63000000    18.88000000    67.10000000
   H     72.13000000    19.63000000    64.34000000
   H     73.26000000    21.54000000    65.13000000
   H     72.61000000    21.26000000    66.76000000
   H     73.97000000    20.29000000    66.09000000
   N     70.30000000    21.66000000    64.49000000
   C     71.05000000    22.30000000    63.43000000
   C     70.24000000    22.28000000    62.13000000
   O     70.87000000    22.06000000    61.10000000
   C     71.54000000    23.70000000    63.80000000
   C     70.41000000    24.71000000    63.84000000
   C     70.99000000    25.99000000    64.43000000
   O     70.92000000    26.32000000    65.63000000
   O     71.63000000    26.74000000    63.66000000
   H     69.39000000    22.05000000    64.67000000
   H     71.95000000    21.73000000    63.23000000
   H     72.17000000    24.03000000    62.97000000
   H     72.07000000    23.75000000    64.76000000
   H     69.68000000    24.35000000    64.56000000
   H     70.00000000    24.82000000    62.83000000
   N     68.92000000    22.42000000    62.16000000
   C     68.08000000    22.58000000    60.99000000
   H     67.19200000    23.15300000    61.25700000
   H     68.63400000    23.10900000    60.21400000
   H     67.78100000    21.59900000    60.62000000
   H     68.48000000    22.61000000    63.05000000
  Ca     80.85000000    18.39000000    59.24000000
   O     79.76000000    17.81000000    61.69000000
   H     79.99000000    18.07000000    62.58000000
   H     78.83000000    17.59000000    61.73000000
   O     80.46000000    15.69000000    59.04000000
   H     79.64000000    15.18000000    59.08000000
   H     81.13000000    15.04000000    58.84000000
   O     80.53000000    20.53000000    61.14000000
   H     80.63000000    21.47000000    60.96000000
   H     80.16000000    20.50000000    62.02000000

Ca 1.00



