%chk=loop4.holoCaM.run33.water2.chk
%nprocshared=20
%mem=10GB
%nosave
#b3lyp/svp scf=(tight,noincore,xqc) Test 
#IOP(5/87=12) Density=Current Pop=(MK,readradii) iop(6/33=2) iop(6/42=6)

loop4.holoCaM.run33.water2 

   -3  1 
   C     88.16000000    54.72000000   -12.40300000
   C     88.61000000    56.18000000   -12.41300000
   O     87.81000000    57.10000000   -12.35300000
   H     87.20200000    54.63200000   -12.91500000
   H     88.90200000    54.10700000   -12.91500000
   H     88.05400000    54.37900000   -11.37300000
   N     89.92000000    56.43000000   -12.46300000
   C     90.41000000    57.78000000   -12.67300000
   C     89.99000000    58.39000000   -14.00300000
   O     90.12000000    57.82000000   -15.08300000
   C     91.92000000    57.80000000   -12.47300000
   C     92.60000000    59.13000000   -12.75300000
   O     93.73000000    59.08000000   -13.27300000
   O     91.99000000    60.17000000   -12.44300000
   H     90.58000000    55.69000000   -12.26300000
   H     89.98000000    58.50000000   -11.96300000
   H     92.35000000    57.06000000   -13.14300000
   H     92.19000000    57.51000000   -11.45300000
   N     89.50000000    59.63000000   -14.00300000
   C     89.06000000    60.37000000   -15.16300000
   C     89.93000000    61.53000000   -15.61300000
   O     89.64000000    62.27000000   -16.55300000
   C     87.62000000    60.85000000   -14.97300000
   C     87.39000000    61.86000000   -13.84300000
   C     86.63000000    59.71000000   -14.78300000
   C     86.00000000    62.49000000   -13.87300000
   H     89.57000000    60.15000000   -13.13300000
   H     88.95000000    59.64000000   -15.96300000
   H     87.36000000    61.30000000   -15.93300000
   H     88.09000000    62.69000000   -13.89300000
   H     87.53000000    61.39000000   -12.86300000
   H     86.81000000    59.03000000   -15.61300000
   H     86.82000000    59.21000000   -13.83300000
   H     85.58000000    60.00000000   -14.87300000
   H     85.74000000    62.98000000   -14.81300000
   H     85.19000000    61.89000000   -13.47300000
   H     86.08000000    63.40000000   -13.26300000
   N     90.95000000    61.86000000   -14.82300000
   C     91.94000000    62.90000000   -15.01300000
   C     93.29000000    62.42000000   -15.52300000
   O     94.18000000    63.26000000   -15.65300000
   C     92.14000000    63.63000000   -13.68300000
   C     90.87000000    64.02000000   -12.94300000
   O     90.26000000    65.06000000   -13.27300000
   O     90.54000000    63.34000000   -11.94300000
   H     91.06000000    61.38000000   -13.94300000
   H     91.63000000    63.62000000   -15.76300000
   H     92.70000000    64.55000000   -13.89300000
   H     92.60000000    62.98000000   -12.95300000
   N     93.61000000    61.12000000   -15.54300000
   C     94.98000000    60.71000000   -15.78300000
   C     95.96000000    61.09000000   -14.68300000
   O     97.10000000    61.42000000   -14.99300000
   H     93.13000000    60.48000000   -14.93300000
   H     95.38000000    60.99000000   -16.75300000
   H     95.10000000    59.63000000   -15.82300000
   N     95.65000000    61.08000000   -13.38300000
   C     96.55000000    61.35000000   -12.28300000
   C     96.90000000    60.14000000   -11.42300000
   O     97.88000000    60.15000000   -10.69300000
   C     96.03000000    62.50000000   -11.42300000
   C     94.69000000    62.25000000   -10.75300000
   O     94.36000000    61.11000000   -10.35300000
   O     93.88000000    63.20000000   -10.68300000
   H     94.69000000    60.87000000   -13.14300000
   H     97.50000000    61.67000000   -12.72300000
   H     95.92000000    63.43000000   -11.98300000
   H     96.77000000    62.63000000   -10.64300000
   N     96.15000000    59.05000000   -11.53300000
   C     96.43000000    57.76000000   -10.92300000
   C     95.87000000    57.57000000    -9.52300000
   O     96.26000000    56.58000000    -8.90300000
   H     95.28000000    59.11000000   -12.05300000
   H     97.52000000    57.71000000   -10.88300000
   H     96.29000000    57.00000000   -11.69300000
   N     94.91000000    58.40000000    -9.12300000
   C     94.12000000    58.33000000    -7.91300000
   C     92.68000000    58.77000000    -8.15300000
   O     92.33000000    59.25000000    -9.23300000
   C     94.74000000    59.30000000    -6.91300000
   C     96.16000000    58.94000000    -6.47300000
   C     96.79000000    59.62000000    -5.27300000
   N     97.87000000    60.36000000    -5.54300000
   O     96.40000000    59.58000000    -4.11300000
   H     94.64000000    59.03000000    -9.86300000
   H     94.17000000    57.34000000    -7.46300000
   H     94.23000000    59.31000000    -5.95300000
   H     94.80000000    60.29000000    -7.35300000
   H     96.86000000    59.08000000    -7.30300000
   H     96.12000000    57.88000000    -6.23300000
   H     98.18000000    60.34000000    -6.50300000
   H     98.22000000    60.99000000    -4.83300000
   N     91.85000000    58.54000000    -7.13300000
   C     90.48000000    59.01000000    -7.09300000
   C     90.18000000    59.90000000    -5.89300000
   O     90.62000000    59.66000000    -4.77300000
   C     89.45000000    57.88000000    -7.20300000
   C     89.54000000    57.17000000    -8.54300000
   C     89.57000000    56.88000000    -6.06300000
   H     92.31000000    58.18000000    -6.31300000
   H     90.26000000    59.61000000    -7.97300000
   H     88.45000000    58.32000000    -7.19300000
   H     88.80000000    56.37000000    -8.61300000
   H     89.31000000    57.86000000    -9.35300000
   H     90.50000000    56.69000000    -8.75300000
   H     90.58000000    56.47000000    -6.01300000
   H     89.23000000    57.30000000    -5.11300000
   H     88.80000000    56.11000000    -6.19300000
   N     89.49000000    61.00000000    -6.19300000
   C     88.72000000    61.78000000    -5.24300000
   C     87.31000000    61.24000000    -5.05300000
   O     86.93000000    60.31000000    -5.76300000
   C     88.64000000    63.25000000    -5.65300000
   C     87.50000000    63.54000000    -6.62300000
   N     87.56000000    63.16000000    -7.90300000
   O     86.48000000    64.08000000    -6.19300000
   H     89.30000000    61.22000000    -7.16300000
   H     89.20000000    61.76000000    -4.25300000
   H     89.56000000    63.57000000    -6.14300000
   H     88.52000000    63.85000000    -4.76300000
   H     88.39000000    62.81000000    -8.35300000
   H     86.67000000    63.07000000    -8.38300000
   N     86.61000000    61.80000000    -4.06300000
   C     85.26000000    61.33000000    -3.81300000
   C     84.36000000    61.12000000    -5.02300000
   O     83.62000000    60.14000000    -5.01300000
   C     84.76000000    62.28000000    -2.73300000
   C     83.35000000    62.07000000    -2.23300000
   C     83.14000000    61.09000000    -1.27300000
   C     82.27000000    62.71000000    -2.85300000
   C     81.84000000    60.61000000    -1.09300000
   C     80.97000000    62.44000000    -2.42300000
   C     80.73000000    61.31000000    -1.60300000
   O     79.46000000    61.01000000    -1.22300000
   H     86.95000000    62.57000000    -3.51300000
   H     85.28000000    60.40000000    -3.24300000
   H     84.78000000    63.32000000    -3.06300000
   H     85.35000000    62.18000000    -1.81300000
   H     83.98000000    60.47000000    -0.96300000
   H     82.51000000    63.43000000    -3.63300000
   H     81.61000000    59.81000000    -0.40300000
   H     80.14000000    62.98000000    -2.85300000
   H     78.83000000    61.42000000    -1.83300000
   N     84.33000000    62.08000000    -5.95300000
   C     83.30000000    62.08000000    -6.97300000
   C     83.48000000    60.98000000    -8.00300000
   O     82.49000000    60.43000000    -8.47300000
   C     83.03000000    63.42000000    -7.65300000
   C     82.27000000    64.36000000    -6.71300000
   C     82.54000000    65.77000000    -7.22300000
   O     81.66000000    66.37000000    -7.89300000
   O     83.62000000    66.35000000    -6.96300000
   H     84.90000000    62.91000000    -5.90300000
   H     82.38000000    61.79000000    -6.45300000
   H     82.28000000    63.21000000    -8.41300000
   H     83.93000000    63.85000000    -8.08300000
   H     82.59000000    64.32000000    -5.67300000
   H     81.20000000    64.16000000    -6.69300000
   N     84.75000000    60.65000000    -8.24300000
   C     85.23000000    59.47000000    -8.93300000
   C     85.03000000    58.19000000    -8.14300000
   O     84.64000000    57.15000000    -8.67300000
   C     86.73000000    59.67000000    -9.18300000
   C     87.10000000    60.76000000   -10.17300000
   C     88.61000000    61.00000000   -10.15300000
   O     89.19000000    61.45000000    -9.14300000
   O     89.36000000    60.70000000   -11.10300000
   H     85.38000000    61.16000000    -7.63300000
   H     84.74000000    59.47000000    -9.90300000
   H     87.10000000    58.68000000    -9.42300000
   H     87.19000000    59.83000000    -8.20300000
   H     86.44000000    61.61000000    -9.97300000
   H     86.77000000    60.45000000   -11.16300000
   N     85.28000000    58.24000000    -6.83300000
   C     85.19000000    57.09000000    -5.95300000
   H     84.14500000    56.80200000    -5.83800000
   H     85.75100000    56.25900000    -6.38100000
   H     85.60500000    57.34500000    -4.97800000
   H     85.49000000    59.14000000    -6.42300000
  Ca     91.64000000    61.57000000   -10.34300000
   O     92.68000000    62.06000000    -7.98300000
   H     93.59000000    61.82000000    -8.09300000
   H     92.71000000    62.92000000    -7.56300000
   O     90.59000000    63.79000000    -9.07300000
   H     90.73000000    64.50000000    -8.44300000
   H     89.73000000    63.97000000    -9.44300000

Ca 1.00



