%chk=loop1.apoCaM-CA-Ng.Init295.run86.water6.chk
%nprocshared=20
%mem=10GB
%nosave
#b3lyp/svp scf=(tight,noincore,xqc) Test 
#IOP(5/87=12) Density=Current Pop=(MK,readradii) iop(6/33=2) iop(6/42=6)

loop1.apoCaM-CA-Ng.Init295.run86.water6 

   0  1 
   C    100.97000000     3.93000000    82.80000000
   C    100.60000000     5.21000000    83.54000000
   O     99.44000000     5.49000000    83.83000000
   H    101.96800000     3.61200000    83.10200000
   H    100.25100000     3.14800000    83.04400000
   H    100.95700000     4.11400000    81.72600000
   N    101.56000000     6.07000000    83.90000000
   C    101.32000000     7.45000000    84.24000000
   C    101.98000000     8.44000000    83.29000000
   O    102.95000000     8.04000000    82.66000000
   C    101.72000000     7.80000000    85.68000000
   C    101.24000000     6.73000000    86.65000000
   O    102.02000000     5.91000000    87.20000000
   O    100.04000000     6.83000000    86.99000000
   H    102.49000000     5.83000000    83.57000000
   H    100.25000000     7.62000000    84.18000000
   H    101.31000000     8.76000000    85.96000000
   H    102.81000000     7.85000000    85.62000000
   N    101.46000000     9.68000000    83.33000000
   C    101.86000000    10.72000000    82.40000000
   C    102.88000000    11.69000000    82.98000000
   O    103.32000000    12.55000000    82.22000000
   C    100.59000000    11.45000000    81.98000000
   C     99.56000000    10.62000000    81.22000000
   C     98.63000000    11.50000000    80.39000000
   C     97.77000000    12.39000000    81.28000000
   N     96.78000000    13.03000000    80.39000000
   H    100.71000000     9.84000000    83.98000000
   H    102.30000000    10.29000000    81.50000000
   H    100.90000000    12.19000000    81.23000000
   H    100.22000000    12.01000000    82.84000000
   H     99.00000000    10.16000000    82.03000000
   H    100.17000000     9.95000000    80.61000000
   H     97.96000000    10.84000000    79.84000000
   H     99.28000000    12.09000000    79.75000000
   H     98.39000000    13.20000000    81.67000000
   H     97.23000000    11.76000000    81.99000000
   H     97.26000000    13.55000000    79.67000000
   H     96.13000000    12.40000000    79.95000000
   H     96.33000000    13.80000000    80.85000000
   N    103.26000000    11.51000000    84.25000000
   C    104.28000000    12.19000000    85.02000000
   C    104.94000000    11.23000000    86.00000000
   O    104.46000000    10.14000000    86.30000000
   C    103.67000000    13.32000000    85.85000000
   C    104.76000000    14.25000000    86.37000000
   O    105.88000000    14.43000000    85.84000000
   O    104.49000000    14.89000000    87.41000000
   H    103.02000000    10.66000000    84.74000000
   H    104.99000000    12.60000000    84.30000000
   H    103.11000000    12.83000000    86.64000000
   H    103.03000000    13.92000000    85.20000000
   N    106.05000000    11.64000000    86.62000000
   C    106.83000000    10.93000000    87.61000000
   C    108.27000000    11.44000000    87.58000000
   O    109.18000000    10.65000000    87.33000000
   H    106.43000000    12.54000000    86.37000000
   H    106.80000000     9.91000000    87.25000000
   H    106.31000000    11.12000000    88.55000000
   N    108.42000000    12.76000000    87.76000000
   C    109.68000000    13.39000000    88.06000000
   C    110.29000000    13.08000000    89.42000000
   O    109.56000000    13.05000000    90.41000000
   C    109.55000000    14.91000000    87.99000000
   C    109.11000000    15.43000000    86.63000000
   O    109.62000000    14.96000000    85.58000000
   O    108.29000000    16.37000000    86.59000000
   H    107.65000000    13.37000000    88.00000000
   H    110.51000000    13.16000000    87.39000000
   H    110.53000000    15.35000000    88.19000000
   H    108.83000000    15.28000000    88.72000000
   N    111.62000000    12.97000000    89.56000000
   C    112.22000000    12.39000000    90.75000000
   C    112.00000000    10.88000000    90.78000000
   O    111.99000000    10.30000000    89.70000000
   H    112.14000000    12.95000000    88.70000000
   H    111.76000000    12.89000000    91.60000000
   H    113.30000000    12.47000000    90.86000000
   N    111.87000000    10.19000000    91.92000000
   C    111.54000000     8.79000000    92.07000000
   C    112.56000000     8.00000000    92.88000000
   O    113.25000000     8.56000000    93.74000000
   C    110.11000000     8.47000000    92.48000000
   C    109.70000000     9.10000000    93.81000000
   O    109.10000000     8.93000000    91.61000000
   H    112.02000000    10.76000000    92.74000000
   H    111.63000000     8.28000000    91.11000000
   H    110.07000000     7.38000000    92.55000000
   H    109.03000000     9.87000000    91.79000000
   H    110.31000000     8.66000000    94.59000000
   H    109.99000000    10.15000000    93.77000000
   H    108.64000000     8.88000000    93.96000000
   N    112.62000000     6.68000000    92.70000000
   C    113.38000000     5.67000000    93.41000000
   C    114.47000000     5.04000000    92.55000000
   O    114.75000000     3.88000000    92.82000000
   C    112.54000000     4.69000000    94.22000000
   C    111.63000000     3.89000000    93.31000000
   C    111.64000000     5.47000000    95.18000000
   C    110.79000000     2.86000000    94.07000000
   H    112.07000000     6.29000000    91.95000000
   H    113.98000000     6.14000000    94.19000000
   H    113.22000000     4.07000000    94.81000000
   H    112.27000000     3.34000000    92.62000000
   H    110.97000000     4.49000000    92.68000000
   H    111.18000000     6.26000000    94.58000000
   H    111.05000000     4.82000000    95.82000000
   H    112.37000000     6.02000000    95.78000000
   H    110.18000000     2.25000000    93.40000000
   H    111.37000000     2.23000000    94.74000000
   H    110.04000000     3.34000000    94.70000000
   N    114.94000000     5.70000000    91.49000000
   C    115.83000000     5.01000000    90.57000000
   C    115.08000000     4.56000000    89.32000000
   O    114.26000000     5.33000000    88.85000000
   C    117.15000000     5.69000000    90.22000000
   C    117.05000000     6.92000000    89.32000000
   O    117.75000000     6.19000000    91.39000000
   H    114.66000000     6.62000000    91.17000000
   H    116.12000000     4.05000000    91.00000000
   H    117.86000000     4.98000000    89.79000000
   H    117.35000000     7.04000000    91.58000000
   H    116.71000000     6.54000000    88.36000000
   H    116.40000000     7.68000000    89.75000000
   H    118.01000000     7.39000000    89.13000000
   N    115.35000000     3.42000000    88.67000000
   C    114.79000000     3.00000000    87.40000000
   C    114.62000000     1.49000000    87.29000000
   O    114.24000000     1.02000000    86.22000000
   C    115.62000000     3.48000000    86.21000000
   C    117.10000000     3.14000000    86.21000000
   O    115.61000000     4.88000000    86.11000000
   H    116.09000000     2.86000000    89.07000000
   H    113.85000000     3.54000000    87.29000000
   H    115.21000000     3.04000000    85.30000000
   H    114.71000000     5.20000000    86.01000000
   H    117.72000000     3.67000000    86.93000000
   H    117.14000000     2.05000000    86.25000000
   H    117.47000000     3.30000000    85.19000000
   N    114.79000000     0.70000000    88.35000000
   C    114.98000000    -0.73000000    88.25000000
   C    113.85000000    -1.54000000    87.64000000
   O    112.74000000    -1.42000000    88.16000000
   C    115.30000000    -1.19000000    89.67000000
   C    115.71000000    -2.65000000    89.82000000
   C    115.99000000    -2.84000000    91.31000000
   C    116.69000000    -4.17000000    91.59000000
   N    116.13000000    -5.38000000    90.97000000
   H    114.91000000     1.10000000    89.27000000
   H    115.88000000    -0.82000000    87.63000000
   H    114.46000000    -1.03000000    90.35000000
   H    116.09000000    -0.57000000    90.09000000
   H    116.60000000    -2.94000000    89.26000000
   H    114.84000000    -3.22000000    89.48000000
   H    115.14000000    -2.76000000    91.99000000
   H    116.67000000    -2.03000000    91.57000000
   H    116.66000000    -4.26000000    92.68000000
   H    117.73000000    -4.15000000    91.27000000
   H    115.12000000    -5.38000000    91.09000000
   H    116.26000000    -5.66000000    90.01000000
   H    116.33000000    -6.23000000    91.47000000
   N    114.06000000    -2.33000000    86.59000000
   C    113.01000000    -3.03000000    85.88000000
   C    113.26000000    -2.95000000    84.38000000
   O    114.39000000    -2.92000000    83.89000000
   C    112.85000000    -4.42000000    86.48000000
   C    114.02000000    -5.29000000    86.04000000
   C    114.17000000    -6.60000000    86.80000000
   O    114.34000000    -6.50000000    88.04000000
   O    114.36000000    -7.68000000    86.22000000
   H    114.93000000    -2.26000000    86.08000000
   H    112.10000000    -2.46000000    86.05000000
   H    111.94000000    -4.83000000    86.03000000
   H    112.63000000    -4.40000000    87.55000000
   H    114.94000000    -4.72000000    86.22000000
   H    113.87000000    -5.41000000    84.97000000
   N    112.25000000    -2.91000000    83.51000000
   C    110.84000000    -3.11000000    83.80000000
   H    110.25600000    -2.93600000    82.89700000
   H    110.68100000    -4.13200000    84.14400000
   H    110.52500000    -2.41200000    84.57600000
   H    112.50000000    -2.71000000    82.55000000
  Ca    107.40400000    15.64000000    84.14000000
   O    109.99400000    15.34000000    82.25000000
   H    110.35400000    15.47000000    81.38000000
   H    110.67400000    14.85000000    82.72000000
   O    105.10400000    14.96000000    82.84000000
   H    104.46400000    15.66000000    82.94000000
   H    104.57400000    14.17000000    82.73000000
   O    108.99400000    17.66000000    83.74000000
   H    108.67400000    18.54000000    83.93000000
   H    109.24400000    17.68000000    82.82000000
   O    107.53400000    13.09000000    83.36000000
   H    107.94400000    12.39000000    83.86000000
   H    107.03400000    12.63000000    82.68000000
   O    105.73400000    17.34000000    85.16000000
   H    105.46400000    18.11000000    84.64000000
   H    105.42400000    17.53000000    86.04000000
   O    106.25400000    17.35000000    82.21000000
   H    105.42400000    17.79000000    82.35000000
   H    106.60400000    17.74000000    81.41000000

Ca 1.00



