%chk=loop1.apoCaM-CA-Ng.Init295.run58.water5.chk
%nprocshared=20
%mem=10GB
%nosave
#b3lyp/svp scf=(tight,noincore,xqc) Test 
#IOP(5/87=12) Density=Current Pop=(MK,readradii) iop(6/33=2) iop(6/42=6)

loop1.apoCaM-CA-Ng.Init295.run58.water5 

   0  1 
   C     69.81000000    79.11000000    54.18000000
   C     69.90000000    80.63000000    54.32000000
   O     69.21000000    81.19000000    55.17000000
   H     68.94000000    78.85200000    53.57600000
   H     70.71200000    78.73500000    53.69600000
   H     69.71300000    78.65900000    55.16700000
   N     70.72000000    81.27000000    53.48000000
   C     71.23000000    82.62000000    53.61000000
   C     70.73000000    83.48000000    52.46000000
   O     70.42000000    82.96000000    51.39000000
   C     72.74000000    82.66000000    53.81000000
   C     73.37000000    84.00000000    54.16000000
   O     72.64000000    84.97000000    54.43000000
   O     74.60000000    83.92000000    54.37000000
   H     71.11000000    80.70000000    52.75000000
   H     70.85000000    83.07000000    54.53000000
   H     73.08000000    82.30000000    52.84000000
   H     73.11000000    81.91000000    54.51000000
   N     70.44000000    84.75000000    52.74000000
   C     69.81000000    85.76000000    51.90000000
   C     70.73000000    86.88000000    51.43000000
   O     70.48000000    87.44000000    50.37000000
   C     68.63000000    86.22000000    52.76000000
   C     67.53000000    86.91000000    51.96000000
   C     66.30000000    87.22000000    52.81000000
   C     65.24000000    87.85000000    51.91000000
   N     64.02000000    88.27000000    52.63000000
   H     70.82000000    85.08000000    53.62000000
   H     69.40000000    85.33000000    50.99000000
   H     69.06000000    86.96000000    53.43000000
   H     68.28000000    85.45000000    53.45000000
   H     67.18000000    86.32000000    51.12000000
   H     67.91000000    87.85000000    51.55000000
   H     66.54000000    87.92000000    53.61000000
   H     65.85000000    86.32000000    53.23000000
   H     65.02000000    87.28000000    51.01000000
   H     65.67000000    88.82000000    51.68000000
   H     64.31000000    89.01000000    53.25000000
   H     63.26000000    88.71000000    52.13000000
   H     63.55000000    87.51000000    53.10000000
   N     71.89000000    87.13000000    52.04000000
   C     72.84000000    88.12000000    51.57000000
   C     74.30000000    87.87000000    51.93000000
   O     75.21000000    88.50000000    51.40000000
   C     72.43000000    89.53000000    52.01000000
   C     73.29000000    90.72000000    51.60000000
   O     73.82000000    90.71000000    50.47000000
   O     73.42000000    91.70000000    52.36000000
   H     72.01000000    86.64000000    52.91000000
   H     72.84000000    88.06000000    50.48000000
   H     72.32000000    89.58000000    53.09000000
   H     71.40000000    89.70000000    51.71000000
   N     74.66000000    86.83000000    52.69000000
   C     75.94000000    86.80000000    53.38000000
   C     77.19000000    86.95000000    52.53000000
   O     77.33000000    86.47000000    51.40000000
   H     73.92000000    86.28000000    53.09000000
   H     76.08000000    85.99000000    54.09000000
   H     75.92000000    87.71000000    53.98000000
   N     78.12000000    87.68000000    53.15000000
   C     79.43000000    87.99000000    52.61000000
   C     80.53000000    87.62000000    53.58000000
   O     80.47000000    87.98000000    54.76000000
   C     79.56000000    89.43000000    52.10000000
   C     78.40000000    89.74000000    51.16000000
   O     77.41000000    90.38000000    51.58000000
   O     78.47000000    89.25000000    50.01000000
   H     78.11000000    87.94000000    54.13000000
   H     79.56000000    87.37000000    51.72000000
   H     80.44000000    89.40000000    51.46000000
   H     79.69000000    90.14000000    52.91000000
   N     81.58000000    86.98000000    53.07000000
   C     82.72000000    86.56000000    53.87000000
   C     82.42000000    85.18000000    54.45000000
   O     82.01000000    84.30000000    53.69000000
   H     81.51000000    86.69000000    52.10000000
   H     83.11000000    87.29000000    54.57000000
   H     83.57000000    86.42000000    53.20000000
   N     82.51000000    85.03000000    55.77000000
   C     82.10000000    83.75000000    56.30000000
   C     83.21000000    82.73000000    56.14000000
   O     84.39000000    83.06000000    56.15000000
   C     81.79000000    83.87000000    57.79000000
   C     80.67000000    84.89000000    57.98000000
   O     81.31000000    82.63000000    58.25000000
   H     83.13000000    85.62000000    56.32000000
   H     81.20000000    83.41000000    55.78000000
   H     82.65000000    84.12000000    58.41000000
   H     81.28000000    82.63000000    59.21000000
   H     79.87000000    84.87000000    57.24000000
   H     80.33000000    84.93000000    59.02000000
   H     81.04000000    85.90000000    57.79000000
   N     82.97000000    81.41000000    56.18000000
   C     83.99000000    80.38000000    56.16000000
   C     84.56000000    80.13000000    54.77000000
   O     85.73000000    79.79000000    54.61000000
   C     83.30000000    79.12000000    56.68000000
   C     81.96000000    78.81000000    56.03000000
   C     82.93000000    79.23000000    58.15000000
   C     81.50000000    77.36000000    56.22000000
   H     82.07000000    81.10000000    56.51000000
   H     84.74000000    80.68000000    56.89000000
   H     84.08000000    78.37000000    56.53000000
   H     82.01000000    78.99000000    54.95000000
   H     81.12000000    79.40000000    56.41000000
   H     83.87000000    79.42000000    58.67000000
   H     82.19000000    80.00000000    58.33000000
   H     82.60000000    78.27000000    58.55000000
   H     80.60000000    77.14000000    55.64000000
   H     82.23000000    76.57000000    56.03000000
   H     81.09000000    77.29000000    57.23000000
   N     83.92000000    80.46000000    53.64000000
   C     84.37000000    80.52000000    52.26000000
   C     84.00000000    79.26000000    51.50000000
   O     82.82000000    78.94000000    51.34000000
   C     83.90000000    81.72000000    51.44000000
   C     84.53000000    83.05000000    51.83000000
   O     84.28000000    81.67000000    50.09000000
   H     82.97000000    80.78000000    53.78000000
   H     85.46000000    80.61000000    52.31000000
   H     82.81000000    81.66000000    51.52000000
   H     83.70000000    82.33000000    49.70000000
   H     84.41000000    83.26000000    52.89000000
   H     85.60000000    82.95000000    51.64000000
   H     84.05000000    83.81000000    51.22000000
   N     84.98000000    78.50000000    51.01000000
   C     84.86000000    77.25000000    50.27000000
   C     84.55000000    76.12000000    51.24000000
   O     84.13000000    75.04000000    50.83000000
   C     86.18000000    76.90000000    49.59000000
   C     85.99000000    75.84000000    48.51000000
   O     87.17000000    76.41000000    50.46000000
   H     85.86000000    78.99000000    51.04000000
   H     84.07000000    77.31000000    49.53000000
   H     86.59000000    77.79000000    49.11000000
   H     88.04000000    76.50000000    50.07000000
   H     85.45000000    75.02000000    48.99000000
   H     85.42000000    76.21000000    47.65000000
   H     86.98000000    75.50000000    48.23000000
   N     84.84000000    76.32000000    52.53000000
   C     84.75000000    75.30000000    53.56000000
   C     83.34000000    74.75000000    53.73000000
   O     82.38000000    75.48000000    53.53000000
   C     85.15000000    75.92000000    54.90000000
   C     86.63000000    76.26000000    54.85000000
   C     87.20000000    76.63000000    56.22000000
   C     88.60000000    77.19000000    55.98000000
   N     89.17000000    77.53000000    57.29000000
   H     85.37000000    77.15000000    52.73000000
   H     85.35000000    74.46000000    53.22000000
   H     85.05000000    75.20000000    55.71000000
   H     84.64000000    76.84000000    55.19000000
   H     86.83000000    77.13000000    54.22000000
   H     87.27000000    75.45000000    54.50000000
   H     87.20000000    75.74000000    56.86000000
   H     86.61000000    77.46000000    56.61000000
   H     88.51000000    78.01000000    55.27000000
   H     89.27000000    76.43000000    55.57000000
   H     89.26000000    76.72000000    57.87000000
   H     90.05000000    78.01000000    57.16000000
   H     88.61000000    78.21000000    57.79000000
   N     83.09000000    73.48000000    54.07000000
   C     81.81000000    72.85000000    54.31000000
   C     81.41000000    71.69000000    53.41000000
   O     82.12000000    70.69000000    53.29000000
   C     81.76000000    72.46000000    55.79000000
   C     82.09000000    73.67000000    56.66000000
   C     81.92000000    73.37000000    58.15000000
   O     80.93000000    73.82000000    58.77000000
   O     82.82000000    72.81000000    58.81000000
   H     83.90000000    72.90000000    54.24000000
   H     81.03000000    73.61000000    54.26000000
   H     82.43000000    71.62000000    55.91000000
   H     80.78000000    72.02000000    55.99000000
   H     81.48000000    74.52000000    56.37000000
   H     83.14000000    73.95000000    56.61000000
   N     80.23000000    71.72000000    52.78000000
   C     79.32000000    72.79000000    52.43000000
   H     78.41300000    72.70600000    53.02900000
   H     79.79600000    73.75100000    52.62500000
   H     79.06400000    72.71900000    51.37300000
   H     80.15000000    71.03000000    52.05000000
  Ca     75.96000000    89.86000000    49.30000000
   O     76.38000000    87.37000000    48.53000000
   H     76.89000000    86.97000000    47.83000000
   H     75.61000000    86.81000000    48.61000000
   O     77.32000000    89.62000000    46.95000000
   H     77.12000000    89.91000000    46.06000000
   H     77.94000000    88.89000000    46.84000000
   O     76.78000000    92.39000000    49.18000000
   H     76.22000000    93.06000000    48.77000000
   H     77.53000000    92.88000000    49.51000000
   O     73.71000000    88.45000000    48.12000000
   H     73.69000000    87.53000000    48.36000000
   H     72.83000000    88.77000000    48.31000000
   O     74.42000000    91.05000000    47.13000000
   H     73.46000000    91.11000000    47.15000000
   H     74.65000000    91.22000000    46.22000000

Ca 1.00



