%chk=loop1.holoCaM-CaMKII.run71.water2.chk
%nprocshared=20
%mem=10GB
%nosave
#b3lyp/svp scf=(tight,noincore,xqc) Test 
#IOP(5/87=12) Density=Current Pop=(MK,readradii) iop(6/33=2) iop(6/42=6)

loop1.holoCaM-CaMKII.run71.water2 

   0  1 
   C     25.23000000    49.93000000    -7.45000000
   C     25.12000000    50.77000000    -8.71000000
   O     24.07000000    50.77000000    -9.34000000
   H     25.78100000    50.48500000    -6.69100000
   H     24.23200000    49.70000000    -7.07800000
   H     25.75700000    49.00300000    -7.67500000
   N     26.11000000    51.62000000    -9.01000000
   C     26.10000000    52.48000000   -10.17000000
   C     26.59000000    51.70000000   -11.38000000
   O     27.57000000    50.96000000   -11.32000000
   C     26.91000000    53.72000000    -9.81000000
   C     27.01000000    54.84000000   -10.84000000
   O     27.69000000    55.87000000   -10.60000000
   O     26.37000000    54.73000000   -11.91000000
   H     26.92000000    51.72000000    -8.41000000
   H     25.05000000    52.77000000   -10.27000000
   H     27.93000000    53.38000000    -9.64000000
   H     26.45000000    54.18000000    -8.94000000
   N     25.86000000    51.81000000   -12.49000000
   C     26.01000000    51.03000000   -13.70000000
   C     26.59000000    51.77000000   -14.90000000
   O     26.95000000    51.13000000   -15.89000000
   C     24.66000000    50.41000000   -14.07000000
   C     24.47000000    49.30000000   -13.04000000
   C     24.87000000    47.92000000   -13.57000000
   C     24.73000000    46.85000000   -12.48000000
   N     25.59000000    47.08000000   -11.31000000
   H     25.04000000    52.40000000   -12.44000000
   H     26.77000000    50.29000000   -13.44000000
   H     24.65000000    49.96000000   -15.06000000
   H     23.87000000    51.16000000   -14.08000000
   H     23.42000000    49.42000000   -12.80000000
   H     24.97000000    49.51000000   -12.10000000
   H     25.91000000    47.93000000   -13.90000000
   H     24.18000000    47.65000000   -14.37000000
   H     25.04000000    45.93000000   -12.97000000
   H     23.71000000    46.72000000   -12.11000000
   H     26.53000000    47.38000000   -11.51000000
   H     25.12000000    47.72000000   -10.69000000
   H     25.65000000    46.25000000   -10.74000000
   N     26.65000000    53.10000000   -14.83000000
   C     27.37000000    53.94000000   -15.77000000
   C     28.39000000    54.89000000   -15.16000000
   O     29.31000000    55.29000000   -15.86000000
   C     26.44000000    54.69000000   -16.73000000
   C     25.41000000    55.59000000   -16.05000000
   O     25.30000000    55.55000000   -14.80000000
   O     24.61000000    56.25000000   -16.74000000
   H     26.15000000    53.60000000   -14.11000000
   H     27.99000000    53.25000000   -16.34000000
   H     26.03000000    54.03000000   -17.49000000
   H     27.08000000    55.34000000   -17.33000000
   N     28.43000000    54.97000000   -13.83000000
   C     29.54000000    55.60000000   -13.14000000
   C     29.60000000    57.12000000   -13.10000000
   O     30.63000000    57.70000000   -13.44000000
   H     27.63000000    54.73000000   -13.27000000
   H     30.49000000    55.26000000   -13.56000000
   H     29.51000000    55.25000000   -12.10000000
   N     28.52000000    57.77000000   -12.67000000
   C     28.32000000    59.20000000   -12.72000000
   C     28.31000000    59.87000000   -11.35000000
   O     28.01000000    61.06000000   -11.22000000
   C     27.07000000    59.30000000   -13.58000000
   C     25.77000000    58.75000000   -13.00000000
   O     24.70000000    58.52000000   -13.61000000
   O     25.73000000    58.27000000   -11.85000000
   H     27.72000000    57.18000000   -12.50000000
   H     29.05000000    59.65000000   -13.39000000
   H     27.29000000    58.88000000   -14.57000000
   H     26.93000000    60.36000000   -13.81000000
   N     28.63000000    59.07000000   -10.33000000
   C     28.48000000    59.44000000    -8.94000000
   C     27.06000000    59.41000000    -8.38000000
   O     26.80000000    60.11000000    -7.41000000
   H     28.73000000    58.08000000   -10.51000000
   H     28.75000000    60.48000000    -8.76000000
   H     29.09000000    58.83000000    -8.27000000
   N     26.08000000    58.79000000    -9.03000000
   C     24.73000000    58.57000000    -8.56000000
   C     24.07000000    57.23000000    -8.87000000
   O     24.52000000    56.57000000    -9.80000000
   C     23.84000000    59.66000000    -9.15000000
   C     23.75000000    60.91000000    -8.28000000
   O     24.34000000    60.12000000   -10.38000000
   H     26.39000000    58.24000000    -9.82000000
   H     24.66000000    58.69000000    -7.47000000
   H     22.80000000    59.34000000    -9.21000000
   H     24.40000000    59.36000000   -10.96000000
   H     23.04000000    60.77000000    -7.46000000
   H     24.68000000    61.37000000    -7.96000000
   H     23.30000000    61.67000000    -8.92000000
   N     23.07000000    56.80000000    -8.10000000
   C     22.27000000    55.61000000    -8.27000000
   C     20.81000000    55.90000000    -8.60000000
   O     20.19000000    56.71000000    -7.92000000
   C     22.51000000    54.76000000    -7.02000000
   C     23.99000000    54.49000000    -6.78000000
   C     21.76000000    53.44000000    -7.15000000
   C     24.33000000    54.03000000    -5.36000000
   H     22.86000000    57.39000000    -7.30000000
   H     22.62000000    55.02000000    -9.12000000
   H     22.11000000    55.29000000    -6.15000000
   H     24.63000000    55.32000000    -7.06000000
   H     24.28000000    53.61000000    -7.35000000
   H     20.71000000    53.74000000    -7.09000000
   H     21.91000000    52.96000000    -8.12000000
   H     21.96000000    52.80000000    -6.29000000
   H     25.35000000    53.64000000    -5.37000000
   H     24.28000000    54.91000000    -4.72000000
   H     23.60000000    53.28000000    -5.04000000
   N     20.22000000    55.36000000    -9.67000000
   C     18.80000000    55.41000000    -9.97000000
   C     17.99000000    54.39000000    -9.18000000
   O     18.52000000    53.50000000    -8.52000000
   C     18.53000000    55.30000000   -11.47000000
   C     19.44000000    56.02000000   -12.45000000
   O     18.30000000    53.98000000   -11.91000000
   H     20.75000000    54.65000000   -10.14000000
   H     18.45000000    56.41000000    -9.71000000
   H     17.62000000    55.87000000   -11.68000000
   H     18.09000000    54.06000000   -12.84000000
   H     20.44000000    55.59000000   -12.40000000
   H     19.02000000    55.94000000   -13.45000000
   H     19.51000000    57.07000000   -12.14000000
   N     16.67000000    54.38000000    -9.33000000
   C     15.75000000    53.31000000    -8.99000000
   C     16.12000000    52.01000000    -9.69000000
   O     16.03000000    50.95000000    -9.07000000
   C     14.32000000    53.71000000    -9.33000000
   C     13.88000000    54.76000000    -8.31000000
   O     14.24000000    54.26000000   -10.63000000
   H     16.24000000    55.15000000    -9.82000000
   H     15.90000000    52.98000000    -7.96000000
   H     13.62000000    52.89000000    -9.24000000
   H     13.33000000    54.53000000   -10.79000000
   H     14.30000000    55.74000000    -8.54000000
   H     12.79000000    54.90000000    -8.30000000
   H     14.21000000    54.42000000    -7.33000000
   N     16.46000000    52.04000000   -10.99000000
   C     16.63000000    50.89000000   -11.84000000
   C     18.00000000    50.31000000   -11.51000000
   O     18.27000000    49.11000000   -11.54000000
   C     16.52000000    51.24000000   -13.32000000
   C     16.53000000    49.98000000   -14.18000000
   C     16.14000000    50.27000000   -15.62000000
   C     17.35000000    50.78000000   -16.39000000
   N     17.00000000    51.08000000   -17.79000000
   H     16.35000000    52.94000000   -11.43000000
   H     15.92000000    50.11000000   -11.58000000
   H     17.33000000    51.89000000   -13.64000000
   H     15.56000000    51.73000000   -13.49000000
   H     15.89000000    49.17000000   -13.82000000
   H     17.52000000    49.53000000   -14.11000000
   H     15.23000000    50.88000000   -15.73000000
   H     15.79000000    49.35000000   -16.08000000
   H     18.20000000    50.09000000   -16.37000000
   H     17.68000000    51.72000000   -15.95000000
   H     17.76000000    51.40000000   -18.36000000
   H     16.69000000    50.23000000   -18.25000000
   H     16.30000000    51.79000000   -17.98000000
   N     18.96000000    51.17000000   -11.16000000
   C     20.30000000    50.86000000   -10.72000000
   C     20.22000000    50.26000000    -9.32000000
   O     20.74000000    49.16000000    -9.18000000
   C     21.20000000    52.09000000   -10.84000000
   C     21.47000000    52.56000000   -12.26000000
   C     22.52000000    53.66000000   -12.30000000
   O     23.52000000    53.55000000   -13.05000000
   O     22.44000000    54.65000000   -11.54000000
   H     18.69000000    52.14000000   -11.14000000
   H     20.65000000    50.00000000   -11.29000000
   H     22.18000000    51.85000000   -10.41000000
   H     20.91000000    52.99000000   -10.30000000
   H     20.55000000    52.87000000   -12.75000000
   H     21.89000000    51.68000000   -12.75000000
   N     19.48000000    50.86000000    -8.39000000
   C     19.18000000    50.30000000    -7.08000000
   H     18.14500000    49.95800000    -7.06000000
   H     19.84400000    49.45800000    -6.88300000
   H     19.32400000    51.06400000    -6.31600000
   H     19.10000000    51.78000000    -8.56000000
  Ca     24.39000000    56.12000000   -12.53400000
   O     22.30000000    57.53000000   -11.78400000
   H     21.71000000    56.80000000   -11.59400000
   H     21.81000000    58.09000000   -12.38400000
   O     22.55000000    56.28000000   -14.80400000
   H     23.29000000    56.45000000   -15.38400000
   H     21.78000000    56.54000000   -15.31400000

Ca 1.00



