%chk=loop3.apoCaM-CA-Ng.Init295.run1.water3.chk
%nprocshared=20
%mem=10GB
%nosave
#b3lyp/svp scf=(tight,noincore,xqc) Test 
#IOP(5/87=12) Density=Current Pop=(MK,readradii) iop(6/33=2) iop(6/42=6)

loop3.apoCaM-CA-Ng.Init295.run1.water3 

   0  1 
   C     53.75000000    44.50000000    46.74000000
   C     53.79000000    44.33000000    48.25000000
   O     52.95000000    44.89000000    48.96000000
   H     53.78000000    45.56100000    46.49400000
   H     54.61000000    44.00000000    46.29500000
   H     52.83200000    44.06200000    46.34900000
   N     54.79000000    43.57000000    48.70000000
   C     54.77000000    42.97000000    50.02000000
   C     55.02000000    44.00000000    51.11000000
   O     55.89000000    44.86000000    50.99000000
   C     55.89000000    41.95000000    50.19000000
   C     55.76000000    41.08000000    51.43000000
   O     55.25000000    39.94000000    51.47000000
   O     56.04000000    41.55000000    52.56000000
   H     55.36000000    43.03000000    48.06000000
   H     53.81000000    42.49000000    50.16000000
   H     56.85000000    42.47000000    50.15000000
   H     55.84000000    41.26000000    49.35000000
   N     54.26000000    43.91000000    52.21000000
   C     54.34000000    44.87000000    53.29000000
   C     55.68000000    44.97000000    53.99000000
   O     55.92000000    45.99000000    54.62000000
   C     53.28000000    44.48000000    54.31000000
   C     51.86000000    44.75000000    53.82000000
   C     50.68000000    44.15000000    54.57000000
   C     49.38000000    44.85000000    54.21000000
   N     48.18000000    44.15000000    54.70000000
   H     53.68000000    43.09000000    52.32000000
   H     54.11000000    45.82000000    52.80000000
   H     53.37000000    45.02000000    55.25000000
   H     53.34000000    43.44000000    54.65000000
   H     51.79000000    44.43000000    52.78000000
   H     51.72000000    45.83000000    53.76000000
   H     50.85000000    44.38000000    55.63000000
   H     50.66000000    43.08000000    54.34000000
   H     49.19000000    45.05000000    53.15000000
   H     49.36000000    45.84000000    54.67000000
   H     48.15000000    44.02000000    55.70000000
   H     47.37000000    44.71000000    54.45000000
   H     48.07000000    43.29000000    54.18000000
   N     56.54000000    43.95000000    53.93000000
   C     57.87000000    43.99000000    54.52000000
   C     58.96000000    43.69000000    53.51000000
   O     60.07000000    44.16000000    53.74000000
   C     57.99000000    43.04000000    55.70000000
   C     57.34000000    41.69000000    55.43000000
   O     57.75000000    40.95000000    54.51000000
   O     56.34000000    41.32000000    56.08000000
   H     56.28000000    43.12000000    53.41000000
   H     58.13000000    45.00000000    54.83000000
   H     57.40000000    43.52000000    56.48000000
   H     59.01000000    42.89000000    56.06000000
   N     58.66000000    42.95000000    52.43000000
   C     59.60000000    42.53000000    51.41000000
   C     59.88000000    41.03000000    51.40000000
   O     60.43000000    40.58000000    50.40000000
   H     57.72000000    42.58000000    52.44000000
   H     60.53000000    43.09000000    51.52000000
   H     59.13000000    42.67000000    50.44000000
   N     59.58000000    40.27000000    52.46000000
   C     59.92000000    38.87000000    52.60000000
   C     58.79000000    37.91000000    52.22000000
   O     57.66000000    38.22000000    52.60000000
   C     60.42000000    38.58000000    54.01000000
   C     60.51000000    37.12000000    54.41000000
   N     61.56000000    36.45000000    53.91000000
   O     59.66000000    36.57000000    55.10000000
   H     59.12000000    40.75000000    53.22000000
   H     60.77000000    38.63000000    51.96000000
   H     59.75000000    39.01000000    54.75000000
   H     61.44000000    38.94000000    54.09000000
   H     62.32000000    36.86000000    53.39000000
   H     61.58000000    35.47000000    54.15000000
   N     59.09000000    36.81000000    51.53000000
   C     58.15000000    36.05000000    50.73000000
   C     57.00000000    35.34000000    51.44000000
   O     55.91000000    35.24000000    50.89000000
   H     60.09000000    36.63000000    51.54000000
   H     58.84000000    35.36000000    50.25000000
   H     57.83000000    36.60000000    49.85000000
   N     57.22000000    35.07000000    52.73000000
   C     56.20000000    34.42000000    53.52000000
   C     54.96000000    35.27000000    53.74000000
   O     55.05000000    36.48000000    53.90000000
   C     56.74000000    33.78000000    54.80000000
   C     57.66000000    32.60000000    54.60000000
   C     59.05000000    32.78000000    54.57000000
   C     57.15000000    31.31000000    54.42000000
   C     59.99000000    31.77000000    54.33000000
   C     58.04000000    30.25000000    54.22000000
   C     59.43000000    30.48000000    54.23000000
   O     60.23000000    29.38000000    54.21000000
   H     58.09000000    35.32000000    53.17000000
   H     55.88000000    33.55000000    52.94000000
   H     55.87000000    33.40000000    55.35000000
   H     57.23000000    34.57000000    55.35000000
   H     59.52000000    33.73000000    54.78000000
   H     56.10000000    31.09000000    54.52000000
   H     61.06000000    31.86000000    54.48000000
   H     57.66000000    29.24000000    54.14000000
   H     59.66000000    28.60000000    54.17000000
   N     53.81000000    34.58000000    53.81000000
   C     52.46000000    35.06000000    53.99000000
   C     52.04000000    35.47000000    55.40000000
   O     52.86000000    35.89000000    56.21000000
   C     51.98000000    36.06000000    52.94000000
   C     52.26000000    35.59000000    51.52000000
   C     52.32000000    37.51000000    53.27000000
   C     51.66000000    36.41000000    50.39000000
   H     53.88000000    33.58000000    53.81000000
   H     51.88000000    34.17000000    53.76000000
   H     50.89000000    36.07000000    53.08000000
   H     51.99000000    34.54000000    51.43000000
   H     53.32000000    35.57000000    51.26000000
   H     51.58000000    38.27000000    53.02000000
   H     52.47000000    37.60000000    54.35000000
   H     53.18000000    37.87000000    52.70000000
   H     51.75000000    35.85000000    49.46000000
   H     50.59000000    36.63000000    50.48000000
   H     52.28000000    37.30000000    50.27000000
   N     50.77000000    35.28000000    55.77000000
   C     50.23000000    35.55000000    57.09000000
   C     49.03000000    34.68000000    57.44000000
   O     48.71000000    34.48000000    58.62000000
   C     50.02000000    37.03000000    57.37000000
   O     49.12000000    37.44000000    56.36000000
   H     50.19000000    34.96000000    55.02000000
   H     50.99000000    35.21000000    57.79000000
   H     50.88000000    37.61000000    57.02000000
   H     49.59000000    37.22000000    58.35000000
   H     48.94000000    38.38000000    56.35000000
   N     48.33000000    34.18000000    56.42000000
   C     47.06000000    33.48000000    56.52000000
   C     46.10000000    34.08000000    57.53000000
   O     45.67000000    33.36000000    58.43000000
   C     47.29000000    31.98000000    56.72000000
   H     48.76000000    34.22000000    55.51000000
   H     46.56000000    33.62000000    55.56000000
   H     47.95000000    31.89000000    57.58000000
   H     46.34000000    31.48000000    56.87000000
   H     47.69000000    31.45000000    55.86000000
   N     45.78000000    35.38000000    57.63000000
   C     46.01000000    36.42000000    56.66000000
   C     45.11000000    36.26000000    55.44000000
   O     44.03000000    35.69000000    55.45000000
   C     45.92000000    37.81000000    57.29000000
   H     45.26000000    35.63000000    58.46000000
   H     47.02000000    36.34000000    56.25000000
   H     44.89000000    38.12000000    57.47000000
   H     46.49000000    37.97000000    58.20000000
   H     46.35000000    38.50000000    56.56000000
   N     45.58000000    36.74000000    54.29000000
   C     46.88000000    37.07000000    53.74000000
   C     47.19000000    36.25000000    52.50000000
   O     48.37000000    36.19000000    52.13000000
   C     46.88000000    38.57000000    53.44000000
   C     48.22000000    39.28000000    53.57000000
   C     47.94000000    40.78000000    53.65000000
   O     47.75000000    41.45000000    52.62000000
   O     47.91000000    41.32000000    54.77000000
   H     44.82000000    37.05000000    53.70000000
   H     47.64000000    36.82000000    54.47000000
   H     46.27000000    39.11000000    54.16000000
   H     46.48000000    38.76000000    52.44000000
   H     48.85000000    39.02000000    52.72000000
   H     48.74000000    38.91000000    54.46000000
   N     46.19000000    35.58000000    51.91000000
   C     46.35000000    34.81000000    50.69000000
   H     47.39800000    34.53600000    50.56900000
   H     45.74300000    33.90600000    50.74800000
   H     46.03100000    35.40900000    49.83700000
   H     45.23000000    35.74000000    52.15000000
  Ca     55.75000000    39.34000000    54.08000000
   O     54.17000000    38.45000000    56.04000000
   H     54.03000000    38.53000000    56.98000000
   H     53.83000000    37.59000000    55.81000000
   O     53.27000000    40.35000000    54.17000000
   H     52.75000000    40.88000000    53.57000000
   H     52.73000000    40.26000000    54.95000000
   O     57.27000000    37.85000000    55.64000000
   H     58.17000000    37.53000000    55.62000000
   H     56.86000000    37.36000000    56.35000000

Ca 1.00



