%chk=loop2.holoCaM.run63.water2.chk
%nprocshared=20
%mem=10GB
%nosave
#b3lyp/svp scf=(tight,noincore,xqc) Test 
#IOP(5/87=12) Density=Current Pop=(MK,readradii) iop(6/33=2) iop(6/42=6)

loop2.holoCaM.run63.water2 

   -2  1 
   C     54.16000000    56.42000000    12.92000000
   C     53.20000000    56.80000000    14.04000000
   O     53.61000000    57.43000000    15.01000000
   H     55.11500000    56.11400000    13.34800000
   H     53.74000000    55.59500000    12.34500000
   H     54.31400000    57.27800000    12.26600000
   N     51.90000000    56.60000000    13.81000000
   C     50.78000000    57.05000000    14.61000000
   C     50.89000000    56.65000000    16.08000000
   O     50.90000000    55.47000000    16.43000000
   C     49.41000000    56.57000000    14.15000000
   C     48.19000000    57.43000000    14.47000000
   O     47.09000000    57.24000000    13.91000000
   O     48.35000000    58.34000000    15.32000000
   H     51.58000000    56.24000000    12.92000000
   H     50.88000000    58.13000000    14.50000000
   H     49.17000000    55.62000000    14.63000000
   H     49.39000000    56.58000000    13.06000000
   N     50.89000000    57.67000000    16.94000000
   C     50.95000000    57.60000000    18.39000000
   C     49.64000000    57.28000000    19.08000000
   O     49.66000000    57.04000000    20.28000000
   C     51.52000000    58.94000000    18.84000000
   H     50.66000000    58.59000000    16.58000000
   H     51.63000000    56.78000000    18.63000000
   H     50.74000000    59.70000000    18.83000000
   H     51.88000000    58.97000000    19.86000000
   H     52.30000000    59.30000000    18.17000000
   N     48.51000000    57.42000000    18.38000000
   C     47.15000000    57.35000000    18.88000000
   C     46.20000000    56.50000000    18.05000000
   O     45.09000000    56.17000000    18.48000000
   C     46.54000000    58.74000000    19.10000000
   C     46.37000000    59.57000000    17.84000000
   O     45.47000000    59.38000000    16.99000000
   O     47.23000000    60.44000000    17.61000000
   H     48.59000000    57.73000000    17.42000000
   H     47.17000000    56.85000000    19.85000000
   H     47.14000000    59.23000000    19.87000000
   H     45.54000000    58.59000000    19.49000000
   N     46.68000000    56.00000000    16.91000000
   C     45.93000000    55.20000000    15.98000000
   C     44.70000000    55.61000000    15.17000000
   O     44.20000000    54.85000000    14.35000000
   H     47.64000000    56.22000000    16.68000000
   H     45.53000000    54.33000000    16.51000000
   H     46.63000000    54.86000000    15.22000000
   N     44.18000000    56.81000000    15.42000000
   C     43.00000000    57.31000000    14.74000000
   C     43.16000000    57.49000000    13.24000000
   O     42.10000000    57.46000000    12.61000000
   C     42.49000000    58.60000000    15.37000000
   C     42.00000000    58.47000000    16.80000000
   N     42.99000000    58.49000000    17.70000000
   O     40.85000000    58.23000000    17.18000000
   H     44.59000000    57.36000000    16.16000000
   H     42.27000000    56.56000000    15.04000000
   H     41.66000000    58.96000000    14.76000000
   H     43.29000000    59.33000000    15.22000000
   H     43.90000000    58.84000000    17.43000000
   H     42.75000000    58.20000000    18.64000000
   N     44.36000000    57.64000000    12.68000000
   C     44.52000000    57.84000000    11.26000000
   C     44.84000000    59.26000000    10.83000000
   O     44.69000000    59.50000000     9.63000000
   H     45.15000000    57.63000000    13.31000000
   H     43.60000000    57.47000000    10.80000000
   H     45.24000000    57.17000000    10.78000000
   N     45.32000000    60.17000000    11.68000000
   C     45.90000000    61.42000000    11.24000000
   C     47.28000000    61.67000000    11.84000000
   O     47.64000000    61.11000000    12.87000000
   C     44.98000000    62.58000000    11.58000000
   C     43.58000000    62.60000000    10.97000000
   O     44.77000000    62.62000000    12.97000000
   H     45.37000000    59.94000000    12.67000000
   H     46.00000000    61.44000000    10.16000000
   H     45.53000000    63.47000000    11.27000000
   H     43.90000000    62.22000000    13.11000000
   H     43.05000000    61.66000000    11.09000000
   H     43.10000000    63.48000000    11.38000000
   H     43.60000000    62.88000000     9.91000000
   N     48.04000000    62.53000000    11.15000000
   C     49.30000000    63.09000000    11.61000000
   C     49.15000000    64.22000000    12.61000000
   O     48.49000000    65.22000000    12.35000000
   C     50.26000000    63.53000000    10.51000000
   C     50.64000000    62.33000000     9.65000000
   C     51.52000000    64.27000000    10.95000000
   C     51.25000000    61.15000000    10.41000000
   H     47.61000000    63.02000000    10.38000000
   H     49.86000000    62.27000000    12.07000000
   H     49.63000000    64.18000000     9.90000000
   H     51.38000000    62.70000000     8.95000000
   H     49.81000000    62.01000000     9.02000000
   H     51.92000000    63.79000000    11.85000000
   H     52.23000000    64.27000000    10.13000000
   H     51.31000000    65.32000000    11.13000000
   H     51.42000000    60.36000000     9.68000000
   H     52.17000000    61.30000000    10.98000000
   H     50.53000000    60.67000000    11.06000000
   N     49.86000000    64.12000000    13.74000000
   C     50.11000000    65.31000000    14.54000000
   C     51.58000000    65.61000000    14.77000000
   O     52.44000000    64.89000000    14.28000000
   C     49.30000000    65.35000000    15.84000000
   C     49.41000000    64.16000000    16.77000000
   O     49.66000000    64.38000000    17.98000000
   O     49.09000000    63.01000000    16.41000000
   H     50.49000000    63.34000000    13.83000000
   H     49.85000000    66.17000000    13.91000000
   H     48.25000000    65.25000000    15.58000000
   H     49.46000000    66.22000000    16.48000000
   N     51.91000000    66.74000000    15.41000000
   C     53.17000000    67.40000000    15.16000000
   C     54.39000000    66.58000000    15.54000000
   O     55.23000000    66.38000000    14.67000000
   C     53.18000000    68.77000000    15.83000000
   C     54.28000000    69.71000000    15.39000000
   C     54.62000000    69.80000000    14.03000000
   C     55.04000000    70.46000000    16.29000000
   C     55.80000000    70.42000000    13.59000000
   C     56.13000000    71.25000000    15.90000000
   C     56.47000000    71.20000000    14.54000000
   H     51.12000000    67.26000000    15.75000000
   H     53.15000000    67.54000000    14.08000000
   H     53.16000000    68.73000000    16.92000000
   H     52.23000000    69.21000000    15.51000000
   H     54.07000000    69.25000000    13.29000000
   H     54.65000000    70.50000000    17.30000000
   H     55.93000000    70.52000000    12.53000000
   H     56.78000000    71.85000000    16.51000000
   H     57.33000000    71.80000000    14.28000000
   N     54.52000000    65.92000000    16.70000000
   C     55.57000000    64.95000000    16.91000000
   C     55.75000000    63.88000000    15.84000000
   O     56.93000000    63.63000000    15.59000000
   C     55.34000000    64.32000000    18.29000000
   C     54.51000000    65.39000000    19.00000000
   C     53.66000000    65.97000000    17.87000000
   H     56.49000000    65.52000000    16.94000000
   H     54.96000000    63.30000000    18.32000000
   H     56.27000000    64.26000000    18.85000000
   H     53.89000000    64.91000000    19.75000000
   H     55.19000000    66.13000000    19.42000000
   H     52.82000000    65.30000000    17.69000000
   H     53.23000000    66.95000000    18.07000000
   N     54.69000000    63.31000000    15.25000000
   C     54.72000000    62.26000000    14.26000000
   C     55.46000000    62.82000000    13.05000000
   O     56.42000000    62.21000000    12.60000000
   C     53.34000000    61.75000000    13.85000000
   C     52.76000000    60.85000000    14.93000000
   C     51.24000000    60.81000000    14.97000000
   O     50.55000000    61.30000000    14.06000000
   O     50.63000000    60.31000000    15.94000000
   H     53.85000000    63.82000000    15.49000000
   H     55.36000000    61.49000000    14.70000000
   H     53.34000000    61.11000000    12.96000000
   H     52.68000000    62.60000000    13.68000000
   H     53.09000000    61.22000000    15.91000000
   H     53.32000000    59.92000000    14.86000000
   N     55.10000000    64.01000000    12.56000000
   C     55.73000000    64.69000000    11.45000000
   H     56.73600000    64.29600000    11.30700000
   H     55.14500000    64.52800000    10.54500000
   H     55.78600000    65.75800000    11.66200000
   H     54.29000000    64.44000000    12.97000000
  Ca     48.17000000    60.97000000    15.33000000
   O     45.76000000    59.38000000    14.45000000
   H     46.14000000    58.50000000    14.38000000
   H     45.62000000    59.50000000    15.39000000
   O     46.09000000    62.80000000    15.41000000
   H     45.42000000    62.98000000    14.75000000
   H     46.06000000    63.56000000    15.99000000

Ca 1.00



