%chk=loop3.holoCaM-CaMKII.run80.water2.chk
%nprocshared=20
%mem=10GB
%nosave
#b3lyp/svp scf=(tight,noincore,xqc) Test 
#IOP(5/87=12) Density=Current Pop=(MK,readradii) iop(6/33=2) iop(6/42=6)

loop3.holoCaM-CaMKII.run80.water2 

   0  1 
   C     41.86000000    45.13000000    94.65500000
   C     42.72000000    43.93000000    95.02500000
   O     43.92000000    44.10000000    95.21500000
   H     40.93500000    45.10500000    95.23100000
   H     42.40200000    46.04900000    94.87900000
   H     41.62600000    45.09600000    93.59100000
   N     42.16000000    42.72000000    95.13500000
   C     42.99000000    41.63000000    95.60500000
   C     43.74000000    40.96000000    94.45500000
   O     43.12000000    40.51000000    93.49500000
   C     42.16000000    40.66000000    96.43500000
   C     43.03000000    39.67000000    97.20500000
   O     42.52000000    38.81000000    97.95500000
   O     44.28000000    39.69000000    97.10500000
   H     41.18000000    42.63000000    94.94500000
   H     43.80000000    41.99000000    96.23500000
   H     41.43000000    40.13000000    95.83500000
   H     41.57000000    41.21000000    97.16500000
   N     45.07000000    40.92000000    94.45500000
   C     45.81000000    40.60000000    93.24500000
   C     45.94000000    39.11000000    92.95500000
   O     46.02000000    38.68000000    91.80500000
   C     47.15000000    41.33000000    93.26500000
   C     47.85000000    41.24000000    91.90500000
   C     49.11000000    42.09000000    91.95500000
   C     49.93000000    41.90000000    90.67500000
   N     50.28000000    40.53000000    90.30500000
   H     45.54000000    41.11000000    95.32500000
   H     45.23000000    40.96000000    92.40500000
   H     47.77000000    41.01000000    94.10500000
   H     47.02000000    42.40000000    93.39500000
   H     47.20000000    41.54000000    91.08500000
   H     48.05000000    40.17000000    91.84500000
   H     49.81000000    41.85000000    92.75500000
   H     48.77000000    43.12000000    92.07500000
   H     50.89000000    42.40000000    90.79500000
   H     49.35000000    42.42000000    89.91500000
   H     50.75000000    40.10000000    91.09500000
   H     49.46000000    40.02000000    90.02500000
   H     50.97000000    40.51000000    89.56500000
   N     46.05000000    38.29000000    94.00500000
   C     45.96000000    36.85000000    93.87500000
   C     44.61000000    36.32000000    94.34500000
   O     44.26000000    35.15000000    94.16500000
   C     46.96000000    36.17000000    94.80500000
   C     46.98000000    36.43000000    96.30500000
   O     45.99000000    37.00000000    96.80500000
   O     47.90000000    35.90000000    96.96500000
   H     46.26000000    38.77000000    94.87500000
   H     46.18000000    36.55000000    92.84500000
   H     47.94000000    36.26000000    94.34500000
   H     46.74000000    35.10000000    94.75500000
   N     43.79000000    37.20000000    94.90500000
   C     42.42000000    36.93000000    95.30500000
   C     42.25000000    36.04000000    96.52500000
   O     41.20000000    35.42000000    96.68500000
   H     44.25000000    37.99000000    95.32500000
   H     41.85000000    36.58000000    94.45500000
   H     41.97000000    37.90000000    95.54500000
   N     43.22000000    35.77000000    97.39500000
   C     43.13000000    34.87000000    98.52500000
   C     42.25000000    35.40000000    99.65500000
   O     41.99000000    34.66000000   100.59500000
   C     44.55000000    34.60000000    99.03500000
   C     45.16000000    35.75000000    99.80500000
   N     45.85000000    35.40000000   100.89500000
   O     44.97000000    36.93000000    99.50500000
   H     44.06000000    36.31000000    97.27500000
   H     42.77000000    33.90000000    98.19500000
   H     45.17000000    34.35000000    98.17500000
   H     44.48000000    33.70000000    99.65500000
   H     45.96000000    34.43000000   101.14500000
   H     46.40000000    36.15000000   101.27500000
   N     41.70000000    36.62000000    99.61500000
   C     40.86000000    37.11000000   100.68500000
   C     41.34000000    38.27000000   101.54500000
   O     40.71000000    38.61000000   102.54500000
   H     42.08000000    37.29000000    98.95500000
   H     40.44000000    36.27000000   101.23500000
   H     40.00000000    37.45000000   100.11500000
   N     42.42000000    38.92000000   101.09500000
   C     43.11000000    39.97000000   101.81500000
   C     43.80000000    40.85000000   100.77500000
   O     44.69000000    40.37000000   100.08500000
   C     44.23000000    39.39000000   102.66500000
   C     43.74000000    38.36000000   103.65500000
   C     43.14000000    38.79000000   104.85500000
   C     43.89000000    37.00000000   103.38500000
   C     42.67000000    37.84000000   105.76500000
   C     43.50000000    36.05000000   104.34500000
   C     42.83000000    36.47000000   105.50500000
   O     42.24000000    35.57000000   106.35500000
   H     42.79000000    38.65000000   100.19500000
   H     42.35000000    40.51000000   102.37500000
   H     44.72000000    40.10000000   103.32500000
   H     44.92000000    38.89000000   101.98500000
   H     42.98000000    39.84000000   105.04500000
   H     44.38000000    36.78000000   102.44500000
   H     42.30000000    38.24000000   106.70500000
   H     43.63000000    35.01000000   104.08500000
   H     41.73000000    36.07000000   106.99500000
   N     43.59000000    42.17000000   100.84500000
   C     44.46000000    43.08000000   100.13500000
   C     45.67000000    43.40000000   101.01500000
   O     45.56000000    43.52000000   102.23500000
   C     43.79000000    44.36000000    99.63500000
   C     42.33000000    44.26000000    99.21500000
   C     44.68000000    44.98000000    98.56500000
   C     41.65000000    45.60000000    99.51500000
   H     42.93000000    42.56000000   101.50500000
   H     44.87000000    42.60000000    99.24500000
   H     43.87000000    45.05000000   100.47500000
   H     41.75000000    43.50000000    99.73500000
   H     42.36000000    43.96000000    98.16500000
   H     44.80000000    44.19000000    97.81500000
   H     44.18000000    45.83000000    98.09500000
   H     45.62000000    45.40000000    98.91500000
   H     42.33000000    46.43000000    99.31500000
   H     40.69000000    45.64000000    98.99500000
   H     41.40000000    45.68000000   100.56500000
   N     46.85000000    43.48000000   100.39500000
   C     48.06000000    43.97000000   101.02500000
   C     48.72000000    45.13000000   100.29500000
   O     48.31000000    45.57000000    99.22500000
   C     48.95000000    42.77000000   101.33500000
   O     49.60000000    42.38000000   100.14500000
   H     46.87000000    43.49000000    99.38500000
   H     47.86000000    44.36000000   102.01500000
   H     48.30000000    41.98000000   101.71500000
   H     49.63000000    43.06000000   102.14500000
   H     48.98000000    41.78000000    99.73500000
   N     49.68000000    45.79000000   100.94500000
   C     50.30000000    47.03000000   100.50500000
   C     50.83000000    46.91000000    99.07500000
   O     50.63000000    47.74000000    98.20500000
   C     51.44000000    47.45000000   101.41500000
   H     49.97000000    45.47000000   101.85500000
   H     49.60000000    47.86000000   100.50500000
   H     52.01000000    48.20000000   100.86500000
   H     51.16000000    47.82000000   102.40500000
   H     52.16000000    46.65000000   101.59500000
   N     51.48000000    45.77000000    98.80500000
   C     52.12000000    45.41000000    97.55500000
   C     51.05000000    45.33000000    96.47500000
   O     51.22000000    45.86000000    95.38500000
   C     52.96000000    44.14000000    97.65500000
   H     51.57000000    45.17000000    99.60500000
   H     52.77000000    46.19000000    97.17500000
   H     53.50000000    44.08000000    98.60500000
   H     52.36000000    43.24000000    97.47500000
   H     53.65000000    44.00000000    96.82500000
   N     49.83000000    44.83000000    96.70500000
   C     48.71000000    44.74000000    95.79500000
   C     47.93000000    46.02000000    95.52500000
   O     47.38000000    46.29000000    94.46500000
   C     47.85000000    43.59000000    96.32500000
   C     48.58000000    42.28000000    96.60500000
   C     47.72000000    41.18000000    97.19500000
   O     47.18000000    40.36000000    96.40500000
   O     47.58000000    41.04000000    98.42500000
   H     49.62000000    44.50000000    97.63500000
   H     49.11000000    44.48000000    94.81500000
   H     47.25000000    43.28000000    95.46500000
   H     47.19000000    43.98000000    97.09500000
   H     49.50000000    42.52000000    97.15500000
   H     48.95000000    42.00000000    95.62500000
   N     48.00000000    46.85000000    96.56500000
   C     47.43000000    48.18000000    96.57500000
   H     46.46800000    48.15900000    97.08700000
   H     48.10300000    48.86100000    97.09600000
   H     47.28800000    48.52300000    95.55000000
   H     48.57000000    46.45000000    97.29500000
  Ca     46.20000000    38.92000000    98.52000000
   O     48.84000000    38.11000000    98.00000000
   H     49.78000000    38.13000000    98.20000000
   H     48.69000000    37.25000000    97.62000000
   O     47.66000000    38.30000000   100.74500000
   H     48.61000000    38.39000000   100.69500000
   H     47.50000000    37.86000000   101.58500000

Ca 1.00



