%chk=loop4.holoCaM.run14.water2.chk
%nprocshared=20
%mem=10GB
%nosave
#b3lyp/svp scf=(tight,noincore,xqc) Test 
#IOP(5/87=12) Density=Current Pop=(MK,readradii) iop(6/33=2) iop(6/42=6)

loop4.holoCaM.run14.water2 

   -3  1 
   C     37.80000000    40.51000000    29.33000000
   C     38.24000000    39.06000000    29.51000000
   O     38.32000000    38.32000000    28.53000000
   H     36.85500000    40.66900000    29.84800000
   H     38.55800000    41.17400000    29.74500000
   H     37.67200000    40.72200000    28.26900000
   N     38.48000000    38.72000000    30.77000000
   C     38.59000000    37.37000000    31.28000000
   C     37.27000000    36.61000000    31.29000000
   O     36.36000000    36.97000000    32.03000000
   C     39.31000000    37.49000000    32.62000000
   C     39.53000000    36.14000000    33.30000000
   O     39.64000000    35.15000000    32.55000000
   O     39.74000000    36.14000000    34.54000000
   H     38.53000000    39.40000000    31.52000000
   H     39.31000000    36.87000000    30.63000000
   H     38.66000000    38.05000000    33.28000000
   H     40.22000000    38.08000000    32.51000000
   N     37.19000000    35.53000000    30.51000000
   C     35.97000000    34.82000000    30.19000000
   C     35.81000000    33.63000000    31.13000000
   O     34.80000000    33.46000000    31.80000000
   C     35.90000000    34.38000000    28.73000000
   C     36.37000000    35.47000000    27.78000000
   C     34.44000000    34.05000000    28.44000000
   C     36.49000000    35.02000000    26.32000000
   H     37.99000000    35.43000000    29.89000000
   H     35.08000000    35.42000000    30.37000000
   H     36.54000000    33.50000000    28.69000000
   H     37.29000000    35.95000000    28.13000000
   H     35.60000000    36.25000000    27.76000000
   H     34.06000000    33.38000000    29.21000000
   H     33.78000000    34.91000000    28.53000000
   H     34.31000000    33.64000000    27.44000000
   H     37.24000000    34.24000000    26.23000000
   H     35.53000000    34.61000000    26.00000000
   H     36.63000000    35.84000000    25.62000000
   N     36.79000000    32.73000000    31.27000000
   C     36.64000000    31.57000000    32.13000000
   C     36.97000000    31.84000000    33.59000000
   O     36.91000000    30.92000000    34.39000000
   C     37.38000000    30.39000000    31.51000000
   C     38.82000000    30.74000000    31.15000000
   O     39.54000000    31.54000000    31.78000000
   O     39.23000000    30.23000000    30.08000000
   H     37.70000000    32.94000000    30.90000000
   H     35.62000000    31.20000000    32.17000000
   H     36.88000000    30.03000000    30.61000000
   H     37.35000000    29.58000000    32.25000000
   N     37.44000000    33.06000000    33.88000000
   C     37.44000000    33.70000000    35.18000000
   C     38.57000000    33.34000000    36.13000000
   O     38.46000000    33.65000000    37.31000000
   H     37.57000000    33.73000000    33.14000000
   H     36.48000000    33.51000000    35.66000000
   H     37.56000000    34.76000000    34.97000000
   N     39.75000000    32.89000000    35.70000000
   C     40.89000000    32.57000000    36.54000000
   C     41.66000000    33.81000000    36.98000000
   O     42.73000000    33.60000000    37.56000000
   C     41.80000000    31.54000000    35.88000000
   C     42.50000000    31.67000000    34.54000000
   O     43.60000000    31.10000000    34.36000000
   O     42.02000000    32.29000000    33.56000000
   H     39.86000000    32.65000000    34.72000000
   H     40.58000000    31.99000000    37.42000000
   H     41.13000000    30.68000000    35.79000000
   H     42.51000000    31.31000000    36.68000000
   N     41.12000000    35.00000000    36.73000000
   C     41.71000000    36.24000000    37.18000000
   C     42.76000000    36.84000000    36.25000000
   O     43.52000000    37.75000000    36.57000000
   H     40.36000000    35.10000000    36.08000000
   H     42.18000000    36.13000000    38.16000000
   H     40.92000000    36.98000000    37.25000000
   N     42.92000000    36.22000000    35.08000000
   C     44.04000000    36.37000000    34.17000000
   C     43.71000000    36.06000000    32.72000000
   O     42.98000000    35.13000000    32.40000000
   C     45.20000000    35.53000000    34.70000000
   C     45.00000000    34.02000000    34.79000000
   C     46.24000000    33.26000000    35.24000000
   N     46.01000000    31.97000000    35.51000000
   O     47.34000000    33.75000000    35.45000000
   H     42.38000000    35.38000000    34.93000000
   H     44.44000000    37.37000000    34.23000000
   H     45.52000000    35.84000000    35.70000000
   H     46.06000000    35.71000000    34.05000000
   H     44.71000000    33.72000000    33.79000000
   H     44.13000000    33.82000000    35.41000000
   H     45.11000000    31.73000000    35.11000000
   H     46.81000000    31.36000000    35.56000000
   N     44.27000000    36.72000000    31.69000000
   C     44.00000000    36.53000000    30.28000000
   C     45.14000000    35.80000000    29.58000000
   O     46.30000000    35.95000000    29.96000000
   C     43.57000000    37.84000000    29.63000000
   C     42.33000000    38.34000000    30.35000000
   C     44.66000000    38.91000000    29.68000000
   H     44.79000000    37.55000000    31.92000000
   H     43.14000000    35.87000000    30.31000000
   H     43.32000000    37.67000000    28.58000000
   H     41.98000000    39.32000000    30.02000000
   H     41.46000000    37.69000000    30.26000000
   H     42.53000000    38.50000000    31.41000000
   H     45.62000000    38.51000000    29.38000000
   H     44.37000000    39.76000000    29.06000000
   H     44.68000000    39.16000000    30.75000000
   N     44.82000000    34.85000000    28.69000000
   C     45.73000000    34.52000000    27.62000000
   C     45.61000000    35.52000000    26.48000000
   O     44.75000000    36.39000000    26.47000000
   C     45.16000000    33.18000000    27.17000000
   C     43.96000000    33.15000000    26.23000000
   N     42.73000000    32.97000000    26.72000000
   O     44.19000000    33.16000000    25.02000000
   H     43.84000000    34.64000000    28.58000000
   H     46.78000000    34.33000000    27.87000000
   H     44.94000000    32.50000000    28.00000000
   H     45.88000000    32.64000000    26.56000000
   H     42.66000000    32.95000000    27.72000000
   H     41.94000000    33.06000000    26.09000000
   N     46.40000000    35.39000000    25.41000000
   C     46.47000000    36.33000000    24.30000000
   C     45.23000000    36.66000000    23.49000000
   O     45.03000000    37.82000000    23.12000000
   C     47.58000000    35.86000000    23.37000000
   C     48.01000000    36.99000000    22.47000000
   C     48.75000000    38.12000000    22.85000000
   C     47.75000000    36.79000000    21.11000000
   C     49.12000000    39.07000000    21.89000000
   C     48.01000000    37.76000000    20.13000000
   C     48.68000000    38.92000000    20.56000000
   O     48.95000000    39.90000000    19.65000000
   H     47.06000000    34.63000000    25.43000000
   H     46.81000000    37.23000000    24.81000000
   H     47.23000000    35.01000000    22.79000000
   H     48.49000000    35.63000000    23.93000000
   H     48.98000000    38.36000000    23.88000000
   H     47.27000000    35.87000000    20.83000000
   H     49.63000000    39.98000000    22.17000000
   H     47.81000000    37.64000000    19.08000000
   H     48.71000000    39.65000000    18.76000000
   N     44.32000000    35.68000000    23.43000000
   C     43.11000000    35.83000000    22.65000000
   C     42.01000000    36.52000000    23.45000000
   O     41.16000000    37.20000000    22.87000000
   C     42.56000000    34.47000000    22.21000000
   C     41.64000000    34.34000000    21.01000000
   C     41.52000000    32.91000000    20.52000000
   O     40.41000000    32.35000000    20.67000000
   O     42.42000000    32.34000000    19.86000000
   H     44.41000000    34.87000000    24.02000000
   H     43.33000000    36.42000000    21.77000000
   H     42.09000000    33.91000000    23.02000000
   H     43.43000000    33.86000000    21.94000000
   H     42.09000000    35.02000000    20.28000000
   H     40.68000000    34.72000000    21.37000000
   N     42.03000000    36.32000000    24.77000000
   C     41.28000000    37.12000000    25.72000000
   C     41.80000000    38.54000000    25.88000000
   O     41.09000000    39.50000000    26.16000000
   C     41.28000000    36.53000000    27.12000000
   C     40.42000000    35.29000000    27.35000000
   C     40.63000000    34.72000000    28.75000000
   O     41.81000000    34.53000000    29.10000000
   O     39.72000000    34.35000000    29.53000000
   H     42.80000000    35.73000000    25.06000000
   H     40.23000000    37.21000000    25.42000000
   H     40.89000000    37.26000000    27.83000000
   H     42.33000000    36.37000000    27.36000000
   H     40.68000000    34.54000000    26.61000000
   H     39.35000000    35.44000000    27.21000000
   N     43.08000000    38.80000000    25.57000000
   C     43.86000000    39.99000000    25.82000000
   H     44.79500000    39.93500000    25.26200000
   H     43.29800000    40.86700000    25.50000000
   H     44.07700000    40.06600000    26.88500000
   H     43.63000000    38.03000000    25.21000000
  Ca     41.17000000    33.37000000    31.43000000
   O     41.62000000    31.46000000    29.60000000
   H     40.83000000    30.95000000    29.77000000
   H     42.29000000    30.81000000    29.41000000
   O     43.91000000    32.25000000    31.47000000
   H     43.82000000    31.97000000    32.38000000
   H     44.66000000    31.75000000    31.13000000

Ca 1.00



