%chk=loop4.apoCaM-CA-Ng.Init31.run49.water3.chk
%nprocshared=20
%mem=10GB
%nosave
#b3lyp/svp scf=(tight,noincore,xqc) Test 
#IOP(5/87=12) Density=Current Pop=(MK,readradii) iop(6/33=2) iop(6/42=6)

loop4.apoCaM-CA-Ng.Init31.run49.water3 

   -3  1 
   C    105.80000000    47.64000000    -0.32000000
   C    107.19000000    47.87000000     0.25000000
   O    107.26000000    48.56000000     1.26000000
   H    105.13500000    48.43800000     0.01200000
   H    105.84900000    47.63800000    -1.40900000
   H    105.41800000    46.68100000     0.02900000
   N    108.36000000    47.41000000    -0.21000000
   C    108.67000000    46.50000000    -1.30000000
   C    109.68000000    45.44000000    -0.89000000
   O    109.81000000    44.40000000    -1.53000000
   C    109.13000000    47.36000000    -2.47000000
   C    108.14000000    48.41000000    -2.97000000
   O    107.22000000    48.14000000    -3.77000000
   O    108.30000000    49.60000000    -2.61000000
   H    109.15000000    47.88000000     0.21000000
   H    107.79000000    45.88000000    -1.46000000
   H    109.32000000    46.72000000    -3.34000000
   H    110.10000000    47.77000000    -2.20000000
   N    110.37000000    45.73000000     0.22000000
   C    110.93000000    44.68000000     1.05000000
   C    111.93000000    43.83000000     0.28000000
   O    111.86000000    42.61000000     0.22000000
   C    111.46000000    45.24000000     2.37000000
   C    110.36000000    45.98000000     3.12000000
   C    112.09000000    44.16000000     3.23000000
   C    109.15000000    45.13000000     3.49000000
   H    110.46000000    46.70000000     0.48000000
   H    110.20000000    43.94000000     1.38000000
   H    112.24000000    45.96000000     2.13000000
   H    109.97000000    46.78000000     2.49000000
   H    110.86000000    46.44000000     3.97000000
   H    113.07000000    43.82000000     2.90000000
   H    112.27000000    44.62000000     4.20000000
   H    111.42000000    43.30000000     3.33000000
   H    108.47000000    45.77000000     4.05000000
   H    108.64000000    44.84000000     2.57000000
   H    109.44000000    44.29000000     4.13000000
   N    112.87000000    44.54000000    -0.35000000
   C    113.57000000    44.05000000    -1.52000000
   C    113.24000000    44.66000000    -2.87000000
   O    113.55000000    44.09000000    -3.92000000
   C    115.07000000    44.18000000    -1.27000000
   C    115.99000000    43.61000000    -2.33000000
   O    116.85000000    44.32000000    -2.89000000
   O    116.00000000    42.39000000    -2.60000000
   H    112.88000000    45.53000000    -0.15000000
   H    113.49000000    42.97000000    -1.62000000
   H    115.24000000    43.69000000    -0.31000000
   H    115.40000000    45.20000000    -1.05000000
   N    112.78000000    45.91000000    -2.82000000
   C    112.68000000    46.74000000    -4.01000000
   C    113.59000000    47.95000000    -3.99000000
   O    114.27000000    48.26000000    -3.00000000
   H    112.29000000    46.16000000    -1.97000000
   H    111.66000000    47.13000000    -4.10000000
   H    112.83000000    46.23000000    -4.96000000
   N    113.64000000    48.70000000    -5.09000000
   C    114.40000000    49.91000000    -5.31000000
   C    114.83000000    50.02000000    -6.76000000
   O    114.22000000    49.30000000    -7.56000000
   C    113.53000000    51.11000000    -4.92000000
   C    112.09000000    51.04000000    -5.38000000
   O    111.77000000    51.33000000    -6.56000000
   O    111.28000000    50.66000000    -4.51000000
   H    113.10000000    48.45000000    -5.91000000
   H    115.28000000    49.94000000    -4.67000000
   H    113.94000000    51.99000000    -5.42000000
   H    113.60000000    51.20000000    -3.83000000
   N    115.82000000    50.82000000    -7.16000000
   C    116.59000000    51.77000000    -6.39000000
   C    117.75000000    51.23000000    -5.57000000
   O    118.01000000    50.03000000    -5.64000000
   H    116.05000000    50.83000000    -8.15000000
   H    115.98000000    52.43000000    -5.78000000
   H    117.03000000    52.56000000    -7.01000000
   N    118.58000000    51.96000000    -4.82000000
   C    118.38000000    53.33000000    -4.40000000
   C    117.01000000    53.64000000    -3.82000000
   O    116.15000000    52.78000000    -3.67000000
   C    118.79000000    54.30000000    -5.51000000
   C    119.94000000    53.93000000    -6.44000000
   C    121.33000000    54.05000000    -5.85000000
   N    122.37000000    54.19000000    -6.68000000
   O    121.61000000    54.07000000    -4.65000000
   H    119.27000000    51.47000000    -4.27000000
   H    119.12000000    53.57000000    -3.64000000
   H    119.05000000    55.25000000    -5.04000000
   H    117.92000000    54.39000000    -6.15000000
   H    119.92000000    54.59000000    -7.31000000
   H    119.89000000    52.90000000    -6.79000000
   H    122.29000000    54.19000000    -7.69000000
   H    123.26000000    54.27000000    -6.21000000
   N    116.75000000    54.92000000    -3.53000000
   C    115.53000000    55.46000000    -2.95000000
   C    115.87000000    56.53000000    -1.93000000
   O    116.70000000    57.39000000    -2.21000000
   C    114.52000000    55.97000000    -3.97000000
   C    113.76000000    54.98000000    -4.85000000
   C    115.12000000    56.99000000    -4.94000000
   H    117.43000000    55.64000000    -3.72000000
   H    115.07000000    54.61000000    -2.45000000
   H    113.74000000    56.49000000    -3.41000000
   H    113.43000000    55.51000000    -5.74000000
   H    114.35000000    54.10000000    -5.09000000
   H    112.92000000    54.60000000    -4.27000000
   H    115.69000000    56.38000000    -5.64000000
   H    114.37000000    57.55000000    -5.51000000
   H    115.69000000    57.83000000    -4.56000000
   N    115.16000000    56.46000000    -0.79000000
   C    115.08000000    57.57000000     0.13000000
   C    113.71000000    58.18000000     0.36000000
   O    112.90000000    57.53000000     1.01000000
   C    115.87000000    57.16000000     1.37000000
   C    116.16000000    58.31000000     2.32000000
   N    116.53000000    57.87000000     3.53000000
   O    116.08000000    59.47000000     1.91000000
   H    114.62000000    55.63000000    -0.61000000
   H    115.74000000    58.33000000    -0.29000000
   H    116.84000000    56.79000000     1.03000000
   H    115.26000000    56.49000000     1.99000000
   H    116.56000000    56.89000000     3.76000000
   H    116.87000000    58.52000000     4.22000000
   N    113.52000000    59.41000000    -0.13000000
   C    112.30000000    60.19000000    -0.07000000
   C    111.36000000    59.68000000    -1.15000000
   O    111.83000000    59.18000000    -2.16000000
   C    112.60000000    61.68000000    -0.20000000
   C    111.39000000    62.51000000     0.16000000
   C    111.13000000    63.62000000    -0.66000000
   C    110.60000000    62.33000000     1.29000000
   C    110.07000000    64.46000000    -0.30000000
   C    109.51000000    63.14000000     1.65000000
   C    109.27000000    64.27000000     0.85000000
   O    108.25000000    65.10000000     1.24000000
   H    114.25000000    59.86000000    -0.67000000
   H    111.82000000    59.90000000     0.86000000
   H    112.87000000    61.88000000    -1.24000000
   H    113.38000000    61.98000000     0.49000000
   H    111.69000000    63.80000000    -1.57000000
   H    110.85000000    61.48000000     1.91000000
   H    109.86000000    65.30000000    -0.94000000
   H    109.01000000    63.05000000     2.60000000
   H    108.09000000    65.83000000     0.64000000
   N    110.05000000    59.83000000    -0.89000000
   C    108.94000000    59.52000000    -1.76000000
   C    108.16000000    58.29000000    -1.32000000
   O    107.93000000    57.97000000    -0.16000000
   C    108.04000000    60.74000000    -1.94000000
   C    106.95000000    60.47000000    -2.98000000
   C    106.03000000    61.68000000    -3.12000000
   O    104.89000000    61.70000000    -2.62000000
   O    106.45000000    62.76000000    -3.59000000
   H    109.81000000    60.13000000     0.04000000
   H    109.32000000    59.23000000    -2.74000000
   H    108.66000000    61.51000000    -2.40000000
   H    107.59000000    61.02000000    -0.99000000
   H    106.30000000    59.62000000    -2.77000000
   H    107.55000000    60.26000000    -3.86000000
   N    107.76000000    57.48000000    -2.30000000
   C    107.22000000    56.15000000    -2.09000000
   C    108.32000000    55.12000000    -1.89000000
   O    108.71000000    54.35000000    -2.76000000
   C    106.26000000    55.89000000    -3.24000000
   C    105.33000000    54.68000000    -3.12000000
   C    105.86000000    53.38000000    -3.70000000
   O    105.80000000    53.04000000    -4.90000000
   O    106.22000000    52.49000000    -2.90000000
   H    108.11000000    57.62000000    -3.24000000
   H    106.57000000    56.15000000    -1.21000000
   H    106.82000000    55.62000000    -4.14000000
   H    105.65000000    56.76000000    -3.46000000
   H    104.31000000    54.86000000    -3.48000000
   H    105.17000000    54.47000000    -2.06000000
   N    108.88000000    55.13000000    -0.67000000
   C    110.00000000    54.30000000    -0.28000000
   H    110.83100000    54.93400000     0.02900000
   H    109.70600000    53.65800000     0.55000000
   H    110.30800000    53.68400000    -1.12500000
   H    108.63000000    55.78000000     0.06000000
  Ca    106.80200000    50.60000000    -4.62200000
   O    109.02200000    52.13000000    -4.31200000
   H    109.11200000    52.82000000    -3.65200000
   H    109.86200000    51.68000000    -4.30200000
   O    107.08200000    51.57000000    -7.09200000
   H    108.01200000    51.71000000    -7.25200000
   H    106.64200000    52.06000000    -7.78200000
   O    109.03200000    49.61000000    -5.88200000
   H    109.30200000    48.76000000    -6.24200000
   H    109.78200000    49.91000000    -5.38200000

Ca 1.00



