%chk=loop1.holoCaM.run11.water2.chk
%nprocshared=20
%mem=10GB
%nosave
#b3lyp/svp scf=(tight,noincore,xqc) Test 
#IOP(5/87=12) Density=Current Pop=(MK,readradii) iop(6/33=2) iop(6/42=6)

loop1.holoCaM.run11.water2 

   0  1 
   C     38.76000000    45.59000000    -8.50000000
   C     37.29000000    45.75000000    -8.86000000
   O     36.71000000    44.80000000    -9.38000000
   H     39.31500000    46.46100000    -8.84800000
   H     38.86200000    45.50200000    -7.41800000
   H     39.15600000    44.69300000    -8.97700000
   N     36.67000000    46.92000000    -8.69000000
   C     35.33000000    47.13000000    -9.19000000
   C     35.44000000    47.87000000   -10.52000000
   O     36.16000000    48.86000000   -10.63000000
   C     34.62000000    48.04000000    -8.19000000
   C     33.25000000    48.55000000    -8.60000000
   O     32.65000000    48.02000000    -9.56000000
   O     32.74000000    49.46000000    -7.91000000
   H     37.13000000    47.73000000    -8.28000000
   H     34.78000000    46.20000000    -9.29000000
   H     35.28000000    48.86000000    -7.91000000
   H     34.52000000    47.36000000    -7.34000000
   N     34.83000000    47.28000000   -11.55000000
   C     35.16000000    47.45000000   -12.95000000
   C     34.11000000    48.19000000   -13.76000000
   O     34.40000000    49.03000000   -14.62000000
   C     35.22000000    46.08000000   -13.63000000
   C     36.36000000    45.15000000   -13.23000000
   C     37.69000000    45.84000000   -13.54000000
   C     38.83000000    44.83000000   -13.38000000
   N     40.15000000    45.47000000   -13.25000000
   H     34.20000000    46.50000000   -11.41000000
   H     36.08000000    48.01000000   -13.10000000
   H     35.24000000    46.24000000   -14.71000000
   H     34.35000000    45.53000000   -13.28000000
   H     36.43000000    44.24000000   -13.83000000
   H     36.19000000    44.92000000   -12.18000000
   H     37.87000000    46.66000000   -12.85000000
   H     37.76000000    46.26000000   -14.55000000
   H     38.78000000    44.14000000   -14.22000000
   H     38.45000000    44.33000000   -12.49000000
   H     40.18000000    46.20000000   -12.55000000
   H     40.85000000    44.79000000   -12.98000000
   H     40.44000000    45.94000000   -14.09000000
   N     32.83000000    47.99000000   -13.44000000
   C     31.75000000    48.82000000   -13.91000000
   C     31.54000000    50.09000000   -13.09000000
   O     31.12000000    51.11000000   -13.63000000
   C     30.44000000    48.08000000   -14.18000000
   C     29.84000000    47.34000000   -12.99000000
   O     30.25000000    47.59000000   -11.84000000
   O     28.85000000    46.60000000   -13.14000000
   H     32.57000000    47.21000000   -12.86000000
   H     31.95000000    49.18000000   -14.92000000
   H     30.58000000    47.50000000   -15.09000000
   H     29.70000000    48.84000000   -14.43000000
   N     32.10000000    50.17000000   -11.88000000
   C     32.25000000    51.28000000   -10.97000000
   C     31.08000000    51.58000000   -10.04000000
   O     31.12000000    52.65000000    -9.44000000
   H     32.42000000    49.27000000   -11.54000000
   H     32.49000000    52.19000000   -11.51000000
   H     33.11000000    51.10000000   -10.33000000
   N     30.10000000    50.70000000    -9.82000000
   C     28.87000000    50.93000000    -9.09000000
   C     29.03000000    51.07000000    -7.58000000
   O     28.16000000    51.48000000    -6.82000000
   C     28.01000000    49.71000000    -9.37000000
   C     28.63000000    48.34000000    -9.14000000
   O     28.23000000    47.28000000    -9.68000000
   O     29.66000000    48.28000000    -8.44000000
   H     30.37000000    49.76000000   -10.10000000
   H     28.48000000    51.90000000    -9.40000000
   H     27.71000000    49.78000000   -10.41000000
   H     27.09000000    49.70000000    -8.78000000
   N     30.17000000    50.65000000    -7.03000000
   C     30.52000000    50.86000000    -5.64000000
   C     30.48000000    49.52000000    -4.92000000
   O     30.41000000    49.48000000    -3.69000000
   H     30.87000000    50.15000000    -7.56000000
   H     29.82000000    51.59000000    -5.23000000
   H     31.47000000    51.41000000    -5.66000000
   N     30.49000000    48.39000000    -5.62000000
   C     30.56000000    47.06000000    -5.04000000
   C     31.42000000    46.04000000    -5.79000000
   O     31.61000000    46.18000000    -7.00000000
   C     29.18000000    46.43000000    -4.87000000
   C     28.36000000    47.04000000    -3.73000000
   O     28.45000000    46.62000000    -6.06000000
   H     30.43000000    48.39000000    -6.62000000
   H     30.96000000    47.14000000    -4.03000000
   H     29.25000000    45.39000000    -4.56000000
   H     28.57000000    47.54000000    -6.30000000
   H     28.94000000    47.01000000    -2.81000000
   H     28.08000000    48.06000000    -4.02000000
   H     27.43000000    46.49000000    -3.68000000
   N     31.87000000    44.96000000    -5.16000000
   C     32.57000000    43.90000000    -5.86000000
   C     31.62000000    42.72000000    -5.96000000
   O     31.13000000    42.21000000    -4.96000000
   C     33.90000000    43.68000000    -5.14000000
   C     34.93000000    44.78000000    -5.36000000
   C     34.54000000    42.36000000    -5.57000000
   C     35.95000000    44.79000000    -4.22000000
   H     31.69000000    44.94000000    -4.16000000
   H     32.74000000    44.11000000    -6.91000000
   H     33.65000000    43.60000000    -4.08000000
   H     34.47000000    45.77000000    -5.40000000
   H     35.44000000    44.60000000    -6.30000000
   H     35.57000000    42.24000000    -5.24000000
   H     33.99000000    41.57000000    -5.06000000
   H     34.49000000    42.25000000    -6.65000000
   H     35.42000000    44.75000000    -3.27000000
   H     36.53000000    43.87000000    -4.15000000
   H     36.62000000    45.62000000    -4.43000000
   N     31.31000000    42.27000000    -7.18000000
   C     30.51000000    41.07000000    -7.36000000
   C     31.28000000    39.83000000    -7.77000000
   O     32.49000000    39.90000000    -7.95000000
   C     29.45000000    41.46000000    -8.39000000
   C     29.91000000    41.58000000    -9.84000000
   O     28.41000000    40.51000000    -8.36000000
   H     31.69000000    42.78000000    -7.97000000
   H     29.93000000    40.83000000    -6.47000000
   H     29.06000000    42.42000000    -8.04000000
   H     27.62000000    40.93000000    -8.72000000
   H     30.11000000    40.55000000   -10.14000000
   H     29.16000000    42.01000000   -10.51000000
   H     30.85000000    42.13000000    -9.88000000
   N     30.66000000    38.66000000    -7.96000000
   C     31.42000000    37.44000000    -8.13000000
   C     32.42000000    37.37000000    -9.28000000
   O     33.56000000    36.95000000    -9.08000000
   C     30.48000000    36.24000000    -8.18000000
   C     29.87000000    35.95000000    -6.81000000
   O     29.35000000    36.43000000    -9.00000000
   H     29.65000000    38.65000000    -7.88000000
   H     32.05000000    37.26000000    -7.25000000
   H     30.94000000    35.32000000    -8.55000000
   H     29.57000000    36.64000000    -9.91000000
   H     29.32000000    35.01000000    -6.82000000
   H     30.70000000    35.97000000    -6.11000000
   H     29.22000000    36.77000000    -6.53000000
   N     32.04000000    37.82000000   -10.48000000
   C     32.92000000    37.91000000   -11.63000000
   C     34.17000000    38.73000000   -11.34000000
   O     35.30000000    38.42000000   -11.71000000
   C     32.13000000    38.38000000   -12.85000000
   C     32.75000000    38.30000000   -14.24000000
   C     31.85000000    38.53000000   -15.44000000
   C     31.59000000    40.04000000   -15.51000000
   N     30.66000000    40.36000000   -16.61000000
   H     31.06000000    37.90000000   -10.70000000
   H     33.23000000    36.89000000   -11.84000000
   H     31.68000000    39.36000000   -12.72000000
   H     31.28000000    37.69000000   -12.83000000
   H     33.26000000    37.33000000   -14.27000000
   H     33.62000000    38.96000000   -14.29000000
   H     30.90000000    38.01000000   -15.30000000
   H     32.28000000    38.21000000   -16.38000000
   H     32.55000000    40.53000000   -15.65000000
   H     31.09000000    40.33000000   -14.60000000
   H     29.78000000    39.96000000   -16.33000000
   H     30.60000000    41.35000000   -16.79000000
   H     31.12000000    39.90000000   -17.39000000
   N     33.97000000    39.84000000   -10.63000000
   C     34.90000000    40.89000000   -10.25000000
   C     35.79000000    40.44000000    -9.10000000
   O     36.98000000    40.75000000    -9.12000000
   C     34.13000000    42.16000000    -9.89000000
   C     33.41000000    42.91000000   -11.01000000
   C     32.74000000    44.21000000   -10.60000000
   O     32.25000000    44.25000000    -9.45000000
   O     32.60000000    45.22000000   -11.32000000
   H     32.99000000    39.96000000   -10.42000000
   H     35.49000000    41.07000000   -11.14000000
   H     34.75000000    42.87000000    -9.35000000
   H     33.37000000    41.86000000    -9.17000000
   H     32.62000000    42.35000000   -11.52000000
   H     34.18000000    43.06000000   -11.78000000
   N     35.23000000    39.68000000    -8.15000000
   C     35.82000000    39.05000000    -6.99000000
   H     36.72200000    39.59000000    -6.70300000
   H     35.10800000    39.06800000    -6.16500000
   H     36.07600000    38.01700000    -7.22700000
   H     34.27000000    39.39000000    -8.25000000
  Ca     30.77000000    46.29000000    -9.66600000
   O     28.82000000    44.79000000    -8.53600000
   H     28.60000000    45.11000000    -7.65600000
   H     27.97000000    44.68000000    -8.96600000
   O     29.47000000    44.68000000   -11.48600000
   H     29.11000000    45.31000000   -12.11600000
   H     28.77000000    44.04000000   -11.35600000

Ca 1.00



