%chk=loop2.apoCaM-CA-Ng.Init31.run71.water7.chk
%nprocshared=20
%mem=10GB
%nosave
#b3lyp/svp scf=(tight,noincore,xqc) Test 
#IOP(5/87=12) Density=Current Pop=(MK,readradii) iop(6/33=2) iop(6/42=6)

loop2.apoCaM-CA-Ng.Init31.run71.water7 

   -2  1 
   C     85.23000000    61.90000000    11.85000000
   C     85.13000000    60.41000000    11.55000000
   O     86.04000000    59.70000000    11.96000000
   H     86.05100000    62.33100000    11.27700000
   H     84.29700000    62.39100000    11.57200000
   H     85.41400000    62.04500000    12.91400000
   N     84.30000000    59.85000000    10.67000000
   C     83.09000000    60.33000000    10.03000000
   C     83.12000000    60.11000000     8.53000000
   O     83.98000000    59.44000000     7.94000000
   C     81.84000000    59.86000000    10.76000000
   C     81.65000000    58.35000000    10.81000000
   O     82.49000000    57.52000000    10.40000000
   O     80.55000000    57.97000000    11.27000000
   H     84.50000000    58.86000000    10.57000000
   H     83.09000000    61.40000000    10.25000000
   H     80.93000000    60.32000000    10.37000000
   H     81.93000000    60.29000000    11.76000000
   N     82.27000000    60.79000000     7.77000000
   C     81.93000000    60.53000000     6.38000000
   C     81.32000000    59.15000000     6.17000000
   O     81.00000000    58.40000000     7.10000000
   C     83.12000000    60.93000000     5.51000000
   H     81.66000000    61.47000000     8.21000000
   H     81.18000000    61.25000000     6.08000000
   H     83.41000000    61.95000000     5.75000000
   H     83.94000000    60.23000000     5.66000000
   H     82.78000000    60.91000000     4.47000000
   N     81.06000000    58.86000000     4.90000000
   C     80.03000000    57.92000000     4.48000000
   C     80.53000000    56.49000000     4.44000000
   O     81.69000000    56.19000000     4.14000000
   C     79.36000000    58.36000000     3.18000000
   C     80.43000000    58.69000000     2.15000000
   O     80.87000000    57.88000000     1.31000000
   O     81.08000000    59.75000000     2.23000000
   H     81.52000000    59.40000000     4.18000000
   H     79.19000000    58.00000000     5.17000000
   H     78.66000000    59.18000000     3.30000000
   H     78.71000000    57.58000000     2.80000000
   N     79.65000000    55.58000000     4.86000000
   C     79.99000000    54.18000000     5.01000000
   C     78.74000000    53.31000000     5.09000000
   O     77.66000000    53.79000000     5.43000000
   H     78.75000000    55.95000000     5.16000000
   H     80.61000000    53.95000000     5.88000000
   H     80.56000000    53.91000000     4.12000000
   N     78.80000000    52.02000000     4.76000000
   C     77.62000000    51.17000000     4.66000000
   C     77.30000000    50.25000000     5.83000000
   O     76.56000000    49.27000000     5.71000000
   C     77.84000000    50.40000000     3.37000000
   C     76.77000000    49.41000000     2.92000000
   N     77.12000000    48.13000000     3.00000000
   O     75.61000000    49.75000000     2.67000000
   H     79.66000000    51.53000000     4.56000000
   H     76.77000000    51.84000000     4.54000000
   H     78.83000000    49.96000000     3.43000000
   H     77.90000000    51.11000000     2.54000000
   H     78.04000000    47.85000000     3.31000000
   H     76.46000000    47.42000000     2.71000000
   N     77.94000000    50.50000000     6.97000000
   C     77.80000000    49.70000000     8.16000000
   C     78.75000000    48.51000000     8.09000000
   O     79.61000000    48.40000000     7.22000000
   H     78.55000000    51.31000000     7.04000000
   H     76.79000000    49.28000000     8.17000000
   H     78.00000000    50.27000000     9.07000000
   N     78.55000000    47.63000000     9.07000000
   C     77.66000000    47.70000000    10.21000000
   C     78.25000000    47.67000000    11.61000000
   O     77.55000000    48.08000000    12.54000000
   C     76.63000000    46.57000000    10.16000000
   C     75.61000000    46.71000000     9.04000000
   O     77.25000000    45.30000000    10.18000000
   H     78.97000000    46.73000000     8.89000000
   H     77.06000000    48.61000000    10.25000000
   H     75.97000000    46.64000000    11.02000000
   H     76.69000000    44.72000000    10.71000000
   H     76.05000000    46.67000000     8.04000000
   H     74.81000000    46.00000000     9.21000000
   H     75.12000000    47.69000000     9.09000000
   N     79.50000000    47.23000000    11.82000000
   C     80.23000000    47.16000000    13.06000000
   C     79.57000000    46.27000000    14.11000000
   O     78.78000000    46.69000000    14.94000000
   C     80.63000000    48.50000000    13.66000000
   C     81.20000000    49.48000000    12.65000000
   C     81.56000000    48.44000000    14.86000000
   C     82.41000000    49.15000000    11.77000000
   H     80.11000000    47.16000000    11.02000000
   H     81.23000000    46.80000000    12.80000000
   H     79.69000000    48.93000000    14.02000000
   H     81.50000000    50.36000000    13.21000000
   H     80.37000000    49.67000000    11.97000000
   H     82.10000000    49.39000000    14.93000000
   H     80.88000000    48.30000000    15.71000000
   H     82.21000000    47.56000000    14.88000000
   H     83.19000000    48.86000000    12.48000000
   H     82.24000000    48.21000000    11.23000000
   H     82.82000000    49.91000000    11.11000000
   N     79.78000000    44.95000000    14.18000000
   C     80.75000000    44.21000000    13.41000000
   C     82.10000000    44.09000000    14.11000000
   O     83.18000000    44.26000000    13.55000000
   C     80.14000000    42.85000000    13.07000000
   C     79.91000000    41.95000000    14.28000000
   O     80.13000000    40.75000000    14.01000000
   O     79.61000000    42.40000000    15.40000000
   H     79.15000000    44.57000000    14.87000000
   H     80.88000000    44.68000000    12.44000000
   H     80.83000000    42.37000000    12.37000000
   H     79.17000000    43.00000000    12.60000000
   N     82.15000000    43.81000000    15.41000000
   C     83.28000000    43.87000000    16.32000000
   C     83.58000000    42.46000000    16.81000000
   O     82.68000000    41.63000000    16.88000000
   C     83.07000000    44.94000000    17.39000000
   C     82.31000000    44.39000000    18.59000000
   C     80.92000000    44.28000000    18.60000000
   C     83.02000000    44.30000000    19.79000000
   C     80.28000000    43.89000000    19.79000000
   C     82.39000000    43.88000000    20.97000000
   C     80.99000000    43.73000000    20.98000000
   H     81.30000000    43.52000000    15.86000000
   H     84.16000000    44.18000000    15.77000000
   H     82.59000000    45.83000000    16.99000000
   H     83.97000000    45.44000000    17.74000000
   H     80.31000000    44.36000000    17.71000000
   H     84.09000000    44.42000000    19.87000000
   H     79.23000000    43.69000000    19.74000000
   H     82.97000000    43.74000000    21.86000000
   H     80.56000000    43.34000000    21.89000000
   N     84.78000000    42.12000000    17.29000000
   C     85.99000000    42.92000000    17.36000000
   C     86.56000000    43.40000000    16.03000000
   O     86.14000000    43.09000000    14.92000000
   C     86.98000000    42.01000000    18.08000000
   C     86.66000000    40.63000000    17.50000000
   C     85.14000000    40.72000000    17.42000000
   H     85.96000000    43.76000000    18.05000000
   H     88.03000000    42.26000000    17.92000000
   H     86.87000000    41.95000000    19.16000000
   H     87.17000000    40.61000000    16.54000000
   H     87.00000000    39.81000000    18.12000000
   H     84.79000000    40.21000000    16.52000000
   H     84.68000000    40.31000000    18.32000000
   N     87.57000000    44.28000000    16.09000000
   C     88.33000000    44.73000000    14.95000000
   C     88.68000000    46.21000000    14.97000000
   O     89.69000000    46.64000000    14.42000000
   C     89.59000000    43.89000000    14.77000000
   C     89.44000000    42.37000000    14.84000000
   C     90.78000000    41.66000000    14.70000000
   O     90.95000000    40.85000000    13.76000000
   O     91.61000000    41.84000000    15.62000000
   H     88.00000000    44.40000000    16.99000000
   H     87.76000000    44.55000000    14.04000000
   H     90.40000000    44.26000000    15.40000000
   H     89.81000000    44.02000000    13.71000000
   H     88.76000000    42.11000000    14.04000000
   H     88.98000000    41.94000000    15.73000000
   N     87.93000000    47.16000000    15.54000000
   C     86.61000000    47.07000000    16.14000000
   H     85.88400000    46.78400000    15.37900000
   H     86.62000000    46.32100000    16.93100000
   H     86.33400000    48.03800000    16.55900000
   H     88.36000000    48.07000000    15.42000000
  Ca     82.83000000    59.34000000     0.38000000
   O     83.33000000    57.52000000     2.51000000
   H     82.79000000    57.13000000     3.20000000
   H     84.07000000    57.92000000     2.97000000
   O     80.98000000    61.04000000    -0.67300000
   H     80.27000000    61.61000000    -0.39300000
   H     81.45000000    61.55000000    -1.34300000
   O     83.77000000    57.03000000    -0.59300000
   H     83.65000000    56.68000000    -1.47300000
   H     84.17000000    56.32000000    -0.10300000
   O     84.01000000    61.26000000     1.99000000
   H     84.80000000    61.15000000     2.52000000
   H     83.86000000    62.20000000     1.97000000
   O     85.53000000    59.04000000     0.52000000
   H     86.05000000    58.51000000     1.12000000
   H     86.06000000    59.83000000     0.37000000
   O     81.46000000    58.50000000    -1.98300000
   H     81.25000000    57.90000000    -2.69300000
   H     80.79000000    59.18000000    -2.03300000
   O     83.71000000    60.59000000    -1.84300000
   H     83.41000000    61.33000000    -2.37300000
   H     84.51000000    60.29000000    -2.28300000

Ca 1.00



