%chk=loop2.apoCaM-CA-Ng.Init31.run25.water4.chk
%nprocshared=20
%mem=10GB
%nosave
#b3lyp/svp scf=(tight,noincore,xqc) Test 
#IOP(5/87=12) Density=Current Pop=(MK,readradii) iop(6/33=2) iop(6/42=6)

loop2.apoCaM-CA-Ng.Init31.run25.water4 

   -2  1 
   C     94.45000000    52.59000000   -22.49000000
   C     93.01000000    53.08000000   -22.48000000
   O     92.29000000    52.70000000   -21.56000000
   H     95.08100000    53.30700000   -21.96500000
   H     94.50900000    51.62200000   -21.99200000
   H     94.79400000    52.49100000   -23.52000000
   N     92.51000000    53.90000000   -23.41000000
   C     93.28000000    54.96000000   -24.01000000
   C     92.97000000    55.04000000   -25.50000000
   O     91.93000000    54.60000000   -25.99000000
   C     92.90000000    56.29000000   -23.37000000
   C     91.41000000    56.64000000   -23.31000000
   O     91.09000000    57.67000000   -22.68000000
   O     90.55000000    55.96000000   -23.90000000
   H     91.51000000    54.05000000   -23.36000000
   H     94.37000000    54.85000000   -23.97000000
   H     93.27000000    57.15000000   -23.92000000
   H     93.36000000    56.39000000   -22.39000000
   N     93.89000000    55.70000000   -26.22000000
   C     93.78000000    56.04000000   -27.62000000
   C     92.55000000    56.91000000   -27.86000000
   O     92.63000000    58.13000000   -27.75000000
   C     93.98000000    54.86000000   -28.56000000
   H     94.66000000    56.12000000   -25.73000000
   H     94.65000000    56.67000000   -27.81000000
   H     95.03000000    54.59000000   -28.68000000
   H     93.40000000    54.10000000   -28.02000000
   H     93.60000000    55.00000000   -29.57000000
   N     91.41000000    56.33000000   -28.25000000
   C     90.28000000    57.10000000   -28.73000000
   C     89.44000000    57.58000000   -27.56000000
   O     89.30000000    56.80000000   -26.62000000
   C     89.52000000    56.39000000   -29.86000000
   C     89.08000000    54.99000000   -29.47000000
   O     89.09000000    54.50000000   -28.32000000
   O     88.82000000    54.27000000   -30.46000000
   H     91.34000000    55.33000000   -28.35000000
   H     90.59000000    58.01000000   -29.24000000
   H     90.14000000    56.42000000   -30.75000000
   H     88.62000000    56.92000000   -30.17000000
   N     89.06000000    58.86000000   -27.53000000
   C     88.28000000    59.43000000   -26.45000000
   C     86.77000000    59.26000000   -26.57000000
   O     86.02000000    60.07000000   -27.10000000
   H     89.27000000    59.43000000   -28.34000000
   H     88.51000000    60.50000000   -26.50000000
   H     88.62000000    59.13000000   -25.46000000
   N     86.38000000    58.04000000   -26.22000000
   C     85.00000000    57.61000000   -26.08000000
   C     84.32000000    58.27000000   -24.88000000
   O     83.11000000    58.47000000   -24.96000000
   C     84.90000000    56.10000000   -25.89000000
   C     85.82000000    55.26000000   -26.77000000
   N     85.34000000    54.68000000   -27.87000000
   O     87.02000000    55.22000000   -26.53000000
   H     87.06000000    57.50000000   -25.71000000
   H     84.45000000    57.99000000   -26.94000000
   H     83.90000000    55.69000000   -26.00000000
   H     85.20000000    55.82000000   -24.88000000
   H     84.38000000    54.77000000   -28.16000000
   H     86.02000000    54.22000000   -28.46000000
   N     85.06000000    58.63000000   -23.83000000
   C     84.47000000    59.04000000   -22.57000000
   C     83.82000000    57.87000000   -21.85000000
   O     83.93000000    56.75000000   -22.35000000
   H     85.98000000    58.22000000   -23.75000000
   H     83.77000000    59.87000000   -22.66000000
   H     85.23000000    59.38000000   -21.87000000
   N     83.14000000    58.10000000   -20.72000000
   C     82.85000000    59.35000000   -20.05000000
   C     83.26000000    59.37000000   -18.58000000
   O     83.26000000    60.41000000   -17.92000000
   C     81.40000000    59.77000000   -20.24000000
   C     80.83000000    59.77000000   -21.66000000
   O     80.48000000    59.16000000   -19.35000000
   H     82.66000000    57.31000000   -20.32000000
   H     83.45000000    60.12000000   -20.55000000
   H     81.36000000    60.79000000   -19.87000000
   H     79.81000000    59.84000000   -19.29000000
   H     81.26000000    60.60000000   -22.23000000
   H     81.13000000    58.82000000   -22.10000000
   H     79.76000000    59.96000000   -21.75000000
   N     83.62000000    58.20000000   -18.06000000
   C     84.34000000    57.95000000   -16.82000000
   C     83.82000000    58.87000000   -15.73000000
   O     84.52000000    59.80000000   -15.35000000
   C     85.86000000    58.00000000   -16.90000000
   C     86.34000000    57.23000000   -18.13000000
   C     86.49000000    57.43000000   -15.63000000
   C     87.85000000    57.35000000   -18.28000000
   H     83.43000000    57.42000000   -18.66000000
   H     84.19000000    56.89000000   -16.60000000
   H     86.21000000    59.02000000   -17.06000000
   H     85.84000000    57.55000000   -19.05000000
   H     85.98000000    56.21000000   -18.06000000
   H     87.57000000    57.48000000   -15.58000000
   H     86.04000000    57.90000000   -14.76000000
   H     86.31000000    56.36000000   -15.61000000
   H     88.33000000    56.68000000   -17.57000000
   H     88.11000000    57.11000000   -19.31000000
   H     88.30000000    58.30000000   -17.98000000
   N     82.69000000    58.57000000   -15.08000000
   C     81.94000000    57.34000000   -15.13000000
   C     82.70000000    56.16000000   -14.55000000
   O     82.66000000    55.06000000   -15.10000000
   C     80.54000000    57.47000000   -14.53000000
   C     80.34000000    57.89000000   -13.08000000
   O     79.21000000    57.86000000   -12.55000000
   O     81.25000000    58.54000000   -12.51000000
   H     82.35000000    59.26000000   -14.41000000
   H     81.79000000    57.06000000   -16.18000000
   H     80.04000000    56.51000000   -14.60000000
   H     79.94000000    58.12000000   -15.18000000
   N     83.64000000    56.54000000   -13.67000000
   C     84.23000000    55.67000000   -12.67000000
   C     83.25000000    54.95000000   -11.75000000
   O     82.11000000    55.38000000   -11.62000000
   C     85.24000000    56.51000000   -11.90000000
   C     84.68000000    57.51000000   -10.91000000
   C     84.22000000    58.79000000   -11.23000000
   C     84.58000000    57.10000000    -9.58000000
   C     83.72000000    59.69000000   -10.28000000
   C     84.22000000    58.01000000    -8.58000000
   C     83.76000000    59.28000000    -8.94000000
   H     83.73000000    57.51000000   -13.41000000
   H     84.84000000    54.92000000   -13.16000000
   H     85.94000000    57.10000000   -12.50000000
   H     85.91000000    55.84000000   -11.36000000
   H     84.37000000    59.11000000   -12.25000000
   H     84.78000000    56.06000000    -9.34000000
   H     83.31000000    60.64000000   -10.59000000
   H     84.20000000    57.80000000    -7.52000000
   H     83.31000000    59.93000000    -8.20000000
   N     83.66000000    53.79000000   -11.23000000
   C     84.95000000    53.14000000   -11.17000000
   C     85.26000000    52.47000000   -12.50000000
   O     84.50000000    52.56000000   -13.46000000
   C     84.95000000    52.20000000    -9.96000000
   C     83.49000000    51.75000000   -10.03000000
   C     82.71000000    52.97000000   -10.51000000
   H     85.73000000    53.89000000   -11.01000000
   H     85.75000000    51.47000000   -10.02000000
   H     85.06000000    52.76000000    -9.03000000
   H     83.37000000    51.00000000   -10.81000000
   H     83.10000000    51.40000000    -9.07000000
   H     81.97000000    52.56000000   -11.20000000
   H     82.27000000    53.52000000    -9.69000000
   N     86.44000000    51.84000000   -12.56000000
   C     86.94000000    51.09000000   -13.69000000
   C     88.45000000    51.18000000   -13.86000000
   O     88.95000000    50.46000000   -14.72000000
   C     86.39000000    49.68000000   -13.48000000
   C     86.43000000    49.04000000   -12.10000000
   C     87.80000000    48.99000000   -11.46000000
   O     88.57000000    48.03000000   -11.66000000
   O     88.08000000    49.90000000   -10.64000000
   H     86.95000000    51.71000000   -11.70000000
   H     86.48000000    51.52000000   -14.57000000
   H     86.86000000    49.01000000   -14.20000000
   H     85.32000000    49.81000000   -13.65000000
   H     86.04000000    48.03000000   -12.24000000
   H     85.75000000    49.58000000   -11.44000000
   N     89.25000000    51.93000000   -13.10000000
   C     89.06000000    53.10000000   -12.26000000
   H     88.03700000    53.11500000   -11.88500000
   H     89.75400000    53.06200000   -11.42000000
   H     89.24500000    54.00100000   -12.84400000
   H     90.23000000    51.67000000   -13.15000000
  Ca     89.36000000    54.37000000   -25.80600000
   O     89.62000000    52.75000000   -23.37600000
   H     89.57000000    51.80000000   -23.46600000
   H     89.90000000    52.89000000   -22.47600000
   O     90.61000000    52.20000000   -27.04600000
   H     91.24000000    51.56000000   -26.74600000
   H     90.67000000    52.17000000   -27.99600000
   O     87.21000000    54.57000000   -23.61600000
   H     86.39000000    54.17000000   -23.32600000
   H     87.13000000    55.49000000   -23.35600000
   O     87.66000000    52.24000000   -25.79600000
   H     86.72000000    52.31000000   -25.65600000
   H     87.94000000    51.51000000   -25.24600000

Ca 1.00



