%chk=loop4.apoCaM-CA-Ng.Init293.run55.water3.chk
%nprocshared=20
%mem=10GB
%nosave
#b3lyp/svp scf=(tight,noincore,xqc) Test 
#IOP(5/87=12) Density=Current Pop=(MK,readradii) iop(6/33=2) iop(6/42=6)

loop4.apoCaM-CA-Ng.Init293.run55.water3 

   -3  1 
   C     46.48000000    61.90000000    75.40000000
   C     45.23000000    61.26000000    74.82000000
   O     44.12000000    61.58000000    75.25000000
   H     47.26100000    61.92500000    74.64000000
   H     46.25300000    62.91700000    75.72000000
   H     46.82400000    61.31700000    76.25500000
   N     45.46000000    60.47000000    73.77000000
   C     44.67000000    59.79000000    72.77000000
   C     43.71000000    60.70000000    72.02000000
   O     43.05000000    60.28000000    71.07000000
   C     44.03000000    58.51000000    73.31000000
   C     43.32000000    58.59000000    74.65000000
   O     42.34000000    59.35000000    74.80000000
   O     43.72000000    57.81000000    75.54000000
   H     46.45000000    60.31000000    73.61000000
   H     45.37000000    59.63000000    71.95000000
   H     44.77000000    57.70000000    73.31000000
   H     43.26000000    58.33000000    72.57000000
   N     43.64000000    62.01000000    72.25000000
   C     42.42000000    62.75000000    71.96000000
   C     41.22000000    62.35000000    72.80000000
   O     41.31000000    62.13000000    74.00000000
   C     42.62000000    64.26000000    71.87000000
   C     43.56000000    64.64000000    70.74000000
   C     42.95000000    64.82000000    73.25000000
   C     43.62000000    66.14000000    70.44000000
   H     44.16000000    62.35000000    73.05000000
   H     42.14000000    62.46000000    70.95000000
   H     41.63000000    64.64000000    71.61000000
   H     43.10000000    64.24000000    69.83000000
   H     44.54000000    64.19000000    70.90000000
   H     43.89000000    64.51000000    73.71000000
   H     42.96000000    65.91000000    73.25000000
   H     42.21000000    64.48000000    73.98000000
   H     44.03000000    66.66000000    71.30000000
   H     44.21000000    66.47000000    69.59000000
   H     42.61000000    66.55000000    70.37000000
   N     40.11000000    62.22000000    72.07000000
   C     38.78000000    61.95000000    72.58000000
   C     38.68000000    60.51000000    73.06000000
   O     39.20000000    59.56000000    72.47000000
   C     37.61000000    62.10000000    71.61000000
   C     37.74000000    63.35000000    70.75000000
   O     37.54000000    64.48000000    71.25000000
   O     38.12000000    63.23000000    69.57000000
   H     40.23000000    62.29000000    71.07000000
   H     38.61000000    62.65000000    73.40000000
   H     36.60000000    62.10000000    72.02000000
   H     37.60000000    61.24000000    70.94000000
   N     37.91000000    60.22000000    74.11000000
   C     37.04000000    61.07000000    74.90000000
   C     37.73000000    62.03000000    75.86000000
   O     38.89000000    61.92000000    76.27000000
   H     37.85000000    59.24000000    74.32000000
   H     36.35000000    60.40000000    75.39000000
   H     36.37000000    61.67000000    74.27000000
   N     37.09000000    63.08000000    76.37000000
   C     35.66000000    63.20000000    76.55000000
   C     34.90000000    63.68000000    75.32000000
   O     33.78000000    63.24000000    75.06000000
   C     35.35000000    63.96000000    77.84000000
   C     33.86000000    63.98000000    78.18000000
   O     33.23000000    62.93000000    78.44000000
   O     33.23000000    65.06000000    78.17000000
   H     37.62000000    63.62000000    77.04000000
   H     35.28000000    62.19000000    76.75000000
   H     35.78000000    64.96000000    77.80000000
   H     35.87000000    63.48000000    78.66000000
   N     35.39000000    64.59000000    74.47000000
   C     36.51000000    65.48000000    74.66000000
   C     36.34000000    66.85000000    74.02000000
   O     35.58000000    67.08000000    73.08000000
   H     34.85000000    64.75000000    73.63000000
   H     37.36000000    65.07000000    74.11000000
   H     36.90000000    65.61000000    75.67000000
   N     37.15000000    67.77000000    74.56000000
   C     37.14000000    69.12000000    74.05000000
   C     38.53000000    69.67000000    73.76000000
   O     38.69000000    70.86000000    73.49000000
   C     36.44000000    70.06000000    75.03000000
   C     36.76000000    69.87000000    76.51000000
   C     35.87000000    70.65000000    77.46000000
   N     34.56000000    70.46000000    77.57000000
   O     36.36000000    71.51000000    78.20000000
   H     37.68000000    67.59000000    75.40000000
   H     36.58000000    69.09000000    73.12000000
   H     35.35000000    69.95000000    74.99000000
   H     36.61000000    71.10000000    74.73000000
   H     37.82000000    70.11000000    76.62000000
   H     36.70000000    68.81000000    76.76000000
   H     34.01000000    69.80000000    77.03000000
   H     34.02000000    71.07000000    78.17000000
   N     39.61000000    68.90000000    73.77000000
   C     40.94000000    69.47000000    73.77000000
   C     41.62000000    69.27000000    75.12000000
   O     41.74000000    68.19000000    75.68000000
   C     41.83000000    69.07000000    72.60000000
   C     43.11000000    69.91000000    72.53000000
   C     41.15000000    69.31000000    71.25000000
   H     39.62000000    67.93000000    74.07000000
   H     40.89000000    70.55000000    73.60000000
   H     42.12000000    68.01000000    72.64000000
   H     43.74000000    69.83000000    73.41000000
   H     43.72000000    69.55000000    71.70000000
   H     42.85000000    70.95000000    72.32000000
   H     40.75000000    70.32000000    71.24000000
   H     41.86000000    69.00000000    70.48000000
   H     40.24000000    68.72000000    71.15000000
   N     42.17000000    70.32000000    75.74000000
   C     43.02000000    70.30000000    76.91000000
   C     42.16000000    70.59000000    78.13000000
   O     42.29000000    71.61000000    78.81000000
   C     44.16000000    71.31000000    76.80000000
   C     45.27000000    71.06000000    77.81000000
   N     45.49000000    71.95000000    78.78000000
   O     45.78000000    69.95000000    77.94000000
   H     42.12000000    71.16000000    75.18000000
   H     43.41000000    69.30000000    77.06000000
   H     43.69000000    72.29000000    76.90000000
   H     44.63000000    71.16000000    75.83000000
   H     44.88000000    72.73000000    78.98000000
   H     46.21000000    71.70000000    79.44000000
   N     41.26000000    69.64000000    78.42000000
   C     40.56000000    69.54000000    79.68000000
   C     40.26000000    68.06000000    79.85000000
   O     39.93000000    67.31000000    78.94000000
   C     39.28000000    70.37000000    79.61000000
   C     38.56000000    70.36000000    80.93000000
   C     38.93000000    71.09000000    82.07000000
   C     37.63000000    69.33000000    81.11000000
   C     38.23000000    70.89000000    83.27000000
   C     36.86000000    69.15000000    82.26000000
   C     37.20000000    69.94000000    83.38000000
   O     36.62000000    69.72000000    84.59000000
   H     41.07000000    68.90000000    77.76000000
   H     41.13000000    69.93000000    80.52000000
   H     38.57000000    69.99000000    78.88000000
   H     39.53000000    71.39000000    79.29000000
   H     39.77000000    71.76000000    82.04000000
   H     37.25000000    68.84000000    80.22000000
   H     38.41000000    71.47000000    84.16000000
   H     36.06000000    68.42000000    82.26000000
   H     36.77000000    70.41000000    85.25000000
   N     40.29000000    67.59000000    81.10000000
   C     40.25000000    66.21000000    81.51000000
   C     41.48000000    65.42000000    81.09000000
   O     41.90000000    64.64000000    81.95000000
   C     38.90000000    65.52000000    81.33000000
   C     38.58000000    64.63000000    82.53000000
   C     37.57000000    63.54000000    82.20000000
   O     36.37000000    63.66000000    82.55000000
   O     38.04000000    62.57000000    81.57000000
   H     40.43000000    68.19000000    81.90000000
   H     40.34000000    66.35000000    82.59000000
   H     39.03000000    64.91000000    80.44000000
   H     38.14000000    66.29000000    81.20000000
   H     38.29000000    65.16000000    83.44000000
   H     39.55000000    64.18000000    82.74000000
   N     42.19000000    65.77000000    80.02000000
   C     43.58000000    65.46000000    79.74000000
   C     44.64000000    66.02000000    80.67000000
   O     45.82000000    66.13000000    80.34000000
   C     43.93000000    65.81000000    78.30000000
   C     42.95000000    65.36000000    77.22000000
   C     42.38000000    63.96000000    77.38000000
   O     41.15000000    63.73000000    77.26000000
   O     43.05000000    62.94000000    77.66000000
   H     41.77000000    66.47000000    79.44000000
   H     43.67000000    64.37000000    79.76000000
   H     44.83000000    65.24000000    78.10000000
   H     44.12000000    66.88000000    78.18000000
   H     43.47000000    65.37000000    76.26000000
   H     42.16000000    66.08000000    77.02000000
   N     44.20000000    66.45000000    81.85000000
   C     44.99000000    67.41000000    82.59000000
   H     45.90200000    67.63300000    82.03700000
   H     44.41600000    68.32600000    82.72600000
   H     45.24900000    66.99500000    83.56400000
   H     43.24000000    66.27000000    82.11000000
  Ca     41.77000000    61.18000000    76.48000000
   O     40.00000000    58.84000000    76.50000000
   H     40.07000000    58.29000000    75.72000000
   H     39.07000000    58.86000000    76.70000000
   O     40.66000000    60.68000000    78.95000000
   H     39.74000000    60.94000000    78.90000000
   H     40.80000000    60.46000000    79.87000000
   O     43.64000000    59.44000000    77.61000000
   H     43.74000000    58.97000000    76.78000000
   H     44.29000000    59.05000000    78.19000000

Ca 1.00



