%chk=loop4.holoCaM-CaMKII.run20.water2.chk
%nprocshared=20
%mem=10GB
%nosave
#b3lyp/svp scf=(tight,noincore,xqc) Test 
#IOP(5/87=12) Density=Current Pop=(MK,readradii) iop(6/33=2) iop(6/42=6)

loop4.holoCaM-CaMKII.run20.water2 

   -3  1 
   C     96.42000000    75.08000000    33.72000000
   C     96.11000000    75.90000000    34.96000000
   O     95.17000000    76.68000000    34.89000000
   H     97.44800000    74.72200000    33.77000000
   H     95.74200000    74.22800000    33.66800000
   H     96.29400000    75.70000000    32.83300000
   N     96.76000000    75.64000000    36.10000000
   C     96.40000000    76.24000000    37.36000000
   C     96.92000000    77.66000000    37.21000000
   O     98.14000000    77.82000000    37.11000000
   C     97.06000000    75.46000000    38.50000000
   C     97.01000000    76.09000000    39.88000000
   O     95.96000000    76.64000000    40.27000000
   O     98.01000000    75.87000000    40.60000000
   H     97.47000000    74.92000000    36.08000000
   H     95.32000000    76.17000000    37.51000000
   H     98.10000000    75.25000000    38.22000000
   H     96.53000000    74.51000000    38.61000000
   N     96.08000000    78.69000000    37.12000000
   C     96.44000000    80.09000000    37.01000000
   C     96.98000000    80.59000000    38.35000000
   O     97.74000000    81.55000000    38.40000000
   C     95.29000000    80.94000000    36.48000000
   C     94.67000000    80.49000000    35.16000000
   C     95.76000000    82.38000000    36.29000000
   C     95.74000000    80.30000000    34.09000000
   H     95.08000000    78.53000000    37.12000000
   H     97.18000000    80.27000000    36.23000000
   H     94.47000000    80.92000000    37.19000000
   H     93.88000000    81.15000000    34.81000000
   H     94.32000000    79.47000000    35.27000000
   H     96.69000000    82.40000000    35.73000000
   H     94.96000000    82.86000000    35.73000000
   H     95.81000000    82.95000000    37.22000000
   H     95.31000000    80.17000000    33.10000000
   H     96.34000000    81.20000000    33.94000000
   H     96.37000000    79.47000000    34.41000000
   N     96.58000000    79.98000000    39.47000000
   C     96.64000000    80.55000000    40.80000000
   C     97.11000000    79.69000000    41.96000000
   O     96.60000000    79.73000000    43.08000000
   C     95.31000000    81.24000000    41.11000000
   C     94.07000000    80.40000000    41.41000000
   O     92.93000000    80.89000000    41.57000000
   O     94.18000000    79.16000000    41.27000000
   H     96.06000000    79.14000000    39.29000000
   H     97.42000000    81.31000000    40.76000000
   H     95.09000000    81.99000000    40.36000000
   H     95.42000000    81.83000000    42.02000000
   N     98.12000000    78.86000000    41.69000000
   C     98.96000000    78.29000000    42.73000000
   C     98.44000000    77.18000000    43.62000000
   O     99.19000000    76.48000000    44.31000000
   H     98.45000000    78.70000000    40.76000000
   H     99.19000000    79.20000000    43.29000000
   H     99.90000000    77.88000000    42.36000000
   N     97.13000000    76.98000000    43.55000000
   C     96.41000000    76.02000000    44.37000000
   C     96.42000000    74.57000000    43.90000000
   O     95.87000000    73.68000000    44.54000000
   C     95.03000000    76.56000000    44.71000000
   C     94.04000000    76.46000000    43.56000000
   O     94.30000000    75.61000000    42.68000000
   O     92.91000000    77.01000000    43.58000000
   H     96.62000000    77.63000000    42.96000000
   H     96.93000000    75.96000000    45.32000000
   H     95.14000000    77.55000000    45.14000000
   H     94.61000000    75.92000000    45.49000000
   N     97.20000000    74.33000000    42.84000000
   C     97.66000000    73.02000000    42.41000000
   C     96.70000000    72.23000000    41.53000000
   O     96.92000000    71.06000000    41.24000000
   H     97.48000000    75.09000000    42.24000000
   H     97.71000000    72.41000000    43.31000000
   H     98.60000000    73.01000000    41.86000000
   N     95.59000000    72.86000000    41.12000000
   C     94.47000000    72.24000000    40.45000000
   C     93.78000000    73.25000000    39.54000000
   O     94.00000000    74.45000000    39.62000000
   C     93.49000000    71.54000000    41.38000000
   C     93.78000000    70.14000000    41.93000000
   C     92.56000000    69.56000000    42.65000000
   N     92.64000000    69.50000000    43.98000000
   O     91.55000000    69.15000000    42.08000000
   H     95.51000000    73.85000000    41.33000000
   H     94.91000000    71.45000000    39.84000000
   H     92.56000000    71.26000000    40.87000000
   H     93.28000000    72.17000000    42.25000000
   H     94.61000000    70.23000000    42.63000000
   H     94.20000000    69.50000000    41.16000000
   H     93.45000000    69.81000000    44.49000000
   H     91.91000000    68.99000000    44.47000000
   N     92.92000000    72.75000000    38.65000000
   C     92.23000000    73.41000000    37.56000000
   C     90.78000000    73.69000000    37.93000000
   O     90.11000000    72.69000000    38.17000000
   C     92.31000000    72.52000000    36.32000000
   C     91.53000000    73.06000000    35.12000000
   C     93.73000000    72.27000000    35.83000000
   H     92.87000000    71.74000000    38.68000000
   H     92.79000000    74.32000000    37.38000000
   H     91.90000000    71.54000000    36.57000000
   H     90.52000000    72.66000000    35.17000000
   H     91.60000000    74.15000000    35.06000000
   H     91.89000000    72.67000000    34.17000000
   H     93.77000000    71.61000000    34.96000000
   H     94.26000000    73.22000000    35.69000000
   H     94.32000000    71.80000000    36.62000000
   N     90.18000000    74.87000000    37.76000000
   C     88.76000000    75.17000000    37.79000000
   C     88.25000000    75.23000000    36.36000000
   O     89.01000000    75.47000000    35.42000000
   C     88.38000000    76.46000000    38.51000000
   C     86.90000000    76.77000000    38.55000000
   N     86.19000000    76.15000000    39.49000000
   O     86.37000000    77.53000000    37.74000000
   H     90.77000000    75.66000000    37.56000000
   H     88.25000000    74.38000000    38.34000000
   H     88.80000000    77.33000000    37.99000000
   H     88.77000000    76.38000000    39.53000000
   H     86.54000000    75.56000000    40.23000000
   H     85.21000000    76.38000000    39.44000000
   N     86.95000000    75.07000000    36.11000000
   C     86.26000000    75.38000000    34.87000000
   C     86.70000000    76.66000000    34.17000000
   O     87.14000000    76.64000000    33.02000000
   C     84.75000000    75.48000000    35.07000000
   C     84.01000000    75.54000000    33.76000000
   C     84.07000000    74.44000000    32.90000000
   C     83.29000000    76.68000000    33.37000000
   C     83.49000000    74.53000000    31.64000000
   C     82.66000000    76.79000000    32.13000000
   C     82.74000000    75.67000000    31.28000000
   O     82.12000000    75.81000000    30.07000000
   H     86.45000000    74.58000000    36.83000000
   H     86.32000000    74.63000000    34.08000000
   H     84.58000000    76.37000000    35.68000000
   H     84.46000000    74.62000000    35.68000000
   H     84.70000000    73.58000000    33.06000000
   H     83.16000000    77.52000000    34.03000000
   H     83.66000000    73.70000000    30.96000000
   H     82.08000000    77.67000000    31.93000000
   H     81.80000000    76.70000000    29.94000000
   N     86.71000000    77.81000000    34.86000000
   C     87.25000000    79.06000000    34.38000000
   C     88.73000000    79.11000000    34.01000000
   O     89.13000000    79.94000000    33.19000000
   C     87.03000000    80.12000000    35.45000000
   C     88.01000000    80.12000000    36.62000000
   C     87.89000000    81.29000000    37.58000000
   O     88.36000000    82.39000000    37.23000000
   O     87.24000000    81.12000000    38.64000000
   H     86.41000000    77.84000000    35.83000000
   H     86.67000000    79.38000000    33.52000000
   H     86.02000000    80.01000000    35.84000000
   H     87.20000000    81.09000000    34.99000000
   H     88.97000000    80.38000000    36.16000000
   H     88.00000000    79.17000000    37.14000000
   N     89.55000000    78.16000000    34.47000000
   C     90.95000000    77.99000000    34.15000000
   C     91.14000000    77.06000000    32.97000000
   O     92.09000000    77.12000000    32.19000000
   C     91.77000000    77.51000000    35.35000000
   C     91.70000000    78.51000000    36.49000000
   C     92.47000000    77.92000000    37.66000000
   O     93.51000000    78.42000000    38.15000000
   O     92.04000000    76.91000000    38.26000000
   H     89.14000000    77.42000000    35.02000000
   H     91.27000000    78.96000000    33.77000000
   H     92.80000000    77.37000000    35.00000000
   H     91.40000000    76.54000000    35.69000000
   H     90.67000000    78.78000000    36.71000000
   H     92.20000000    79.46000000    36.28000000
   N     90.12000000    76.27000000    32.64000000
   C     90.04000000    75.44000000    31.45000000
   H     89.60100000    76.01600000    30.63500000
   H     91.04000000    75.11400000    31.16600000
   H     89.41800000    74.56900000    31.65500000
   H     89.35000000    76.28000000    33.29000000
  Ca     93.44000000    76.81000000    40.57000000
   O     91.35000000    75.40000000    41.28000000
   H     90.58000000    75.14000000    40.77000000
   H     91.10000000    75.25000000    42.19000000
   O     91.39000000    78.55000000    41.01000000
   H     91.40000000    79.51000000    40.94000000
   H     90.50000000    78.34000000    41.29000000

Ca 1.00



