%chk=loop4.apoCaM-CA-Ng.Init293.run62.water3.chk
%nprocshared=20
%mem=10GB
%nosave
#b3lyp/svp scf=(tight,noincore,xqc) Test 
#IOP(5/87=12) Density=Current Pop=(MK,readradii) iop(6/33=2) iop(6/42=6)

loop4.apoCaM-CA-Ng.Init293.run62.water3 

   -3  1 
   C     51.43000000    61.04000000    61.57000000
   C     49.94000000    60.92000000    61.85000000
   O     49.26000000    61.78000000    62.41000000
   H     51.98400000    60.43500000    62.28800000
   H     51.64000000    60.68700000    60.56000000
   H     51.73500000    62.08200000    61.66200000
   N     49.39000000    59.77000000    61.44000000
   C     48.05000000    59.22000000    61.50000000
   C     46.88000000    60.05000000    60.99000000
   O     45.81000000    59.51000000    60.69000000
   C     47.82000000    58.37000000    62.75000000
   C     47.60000000    59.14000000    64.05000000
   O     47.46000000    60.38000000    64.06000000
   O     47.65000000    58.42000000    65.07000000
   H     50.05000000    59.14000000    61.02000000
   H     48.08000000    58.50000000    60.68000000
   H     48.65000000    57.68000000    62.87000000
   H     46.82000000    57.93000000    62.67000000
   N     47.09000000    61.35000000    60.77000000
   C     46.05000000    62.33000000    60.53000000
   C     45.51000000    62.60000000    61.93000000
   O     46.24000000    62.80000000    62.91000000
   C     46.47000000    63.61000000    59.82000000
   C     46.56000000    63.38000000    58.31000000
   C     47.76000000    64.20000000    60.38000000
   C     46.92000000    64.61000000    57.48000000
   H     47.88000000    61.69000000    61.30000000
   H     45.21000000    61.95000000    59.95000000
   H     45.68000000    64.34000000    59.99000000
   H     45.63000000    62.95000000    57.94000000
   H     47.36000000    62.66000000    58.17000000
   H     47.64000000    64.57000000    61.40000000
   H     48.60000000    63.54000000    60.22000000
   H     47.97000000    65.07000000    59.77000000
   H     46.19000000    65.42000000    57.62000000
   H     47.92000000    64.97000000    57.70000000
   H     47.03000000    64.40000000    56.41000000
   N     44.19000000    62.53000000    62.10000000
   C     43.48000000    62.62000000    63.36000000
   C     43.84000000    61.52000000    64.35000000
   O     43.90000000    60.37000000    63.91000000
   C     42.01000000    62.78000000    63.00000000
   C     41.51000000    61.93000000    61.83000000
   O     40.85000000    60.91000000    62.12000000
   O     41.86000000    62.25000000    60.67000000
   H     43.69000000    62.34000000    61.25000000
   H     43.71000000    63.55000000    63.89000000
   H     41.84000000    63.83000000    62.78000000
   H     41.43000000    62.50000000    63.88000000
   N     43.83000000    61.72000000    65.67000000
   C     43.72000000    63.02000000    66.31000000
   C     44.95000000    63.92000000    66.25000000
   O     45.98000000    63.58000000    65.67000000
   H     43.82000000    60.88000000    66.22000000
   H     43.52000000    62.84000000    67.37000000
   H     42.76000000    63.43000000    65.99000000
   N     44.94000000    65.07000000    66.93000000
   C     43.89000000    65.60000000    67.77000000
   C     42.68000000    66.11000000    67.01000000
   O     41.60000000    65.98000000    67.59000000
   C     44.52000000    66.69000000    68.63000000
   C     43.73000000    67.14000000    69.86000000
   O     43.79000000    66.55000000    70.96000000
   O     43.09000000    68.21000000    69.83000000
   H     45.79000000    65.61000000    66.97000000
   H     43.54000000    64.84000000    68.48000000
   H     44.77000000    67.61000000    68.10000000
   H     45.42000000    66.20000000    69.00000000
   N     42.73000000    66.75000000    65.84000000
   C     43.89000000    67.33000000    65.19000000
   C     43.47000000    68.45000000    64.25000000
   O     42.30000000    68.54000000    63.87000000
   H     41.87000000    67.13000000    65.47000000
   H     44.30000000    66.61000000    64.48000000
   H     44.73000000    67.65000000    65.80000000
   N     44.34000000    69.34000000    63.77000000
   C     44.02000000    70.64000000    63.22000000
   C     44.77000000    70.82000000    61.90000000
   O     45.07000000    71.95000000    61.53000000
   C     44.31000000    71.75000000    64.22000000
   C     43.52000000    71.58000000    65.51000000
   C     44.13000000    70.67000000    66.57000000
   N     43.30000000    69.98000000    67.35000000
   O     45.31000000    70.74000000    66.90000000
   H     45.33000000    69.20000000    63.93000000
   H     42.95000000    70.69000000    63.03000000
   H     43.98000000    72.69000000    63.76000000
   H     45.37000000    71.82000000    64.45000000
   H     42.50000000    71.26000000    65.31000000
   H     43.36000000    72.55000000    65.98000000
   H     42.33000000    69.84000000    67.11000000
   H     43.69000000    69.47000000    68.13000000
   N     45.01000000    69.80000000    61.07000000
   C     45.87000000    69.86000000    59.91000000
   C     47.20000000    69.16000000    60.13000000
   O     47.32000000    68.05000000    60.64000000
   C     45.22000000    69.44000000    58.59000000
   C     44.12000000    70.43000000    58.24000000
   C     44.58000000    68.05000000    58.68000000
   H     44.73000000    68.87000000    61.34000000
   H     46.22000000    70.87000000    59.69000000
   H     45.96000000    69.44000000    57.79000000
   H     44.52000000    71.27000000    57.67000000
   H     43.37000000    69.95000000    57.61000000
   H     43.53000000    70.80000000    59.07000000
   H     43.88000000    68.04000000    59.52000000
   H     44.09000000    67.80000000    57.74000000
   H     45.33000000    67.27000000    58.81000000
   N     48.23000000    69.81000000    59.58000000
   C     49.63000000    69.51000000    59.78000000
   C     50.30000000    70.18000000    60.98000000
   O     51.37000000    69.75000000    61.41000000
   C     50.36000000    69.79000000    58.47000000
   C     51.88000000    69.67000000    58.49000000
   N     52.59000000    70.80000000    58.46000000
   O     52.49000000    68.64000000    58.76000000
   H     48.04000000    70.75000000    59.25000000
   H     49.71000000    68.46000000    60.08000000
   H     50.18000000    70.83000000    58.20000000
   H     49.98000000    69.09000000    57.74000000
   H     52.19000000    71.72000000    58.51000000
   H     53.59000000    70.70000000    58.52000000
   N     49.65000000    71.20000000    61.55000000
   C     50.04000000    71.83000000    62.79000000
   C     49.99000000    70.86000000    63.97000000
   O     49.00000000    70.15000000    64.09000000
   C     49.08000000    72.99000000    63.04000000
   C     49.45000000    74.00000000    64.10000000
   C     50.77000000    74.47000000    64.08000000
   C     48.55000000    74.45000000    65.06000000
   C     51.20000000    75.25000000    65.17000000
   C     48.91000000    75.39000000    66.04000000
   C     50.28000000    75.72000000    66.12000000
   O     50.73000000    76.56000000    67.10000000
   H     49.10000000    71.76000000    60.92000000
   H     51.07000000    72.12000000    62.60000000
   H     48.09000000    72.60000000    63.28000000
   H     48.91000000    73.47000000    62.07000000
   H     51.46000000    74.14000000    63.32000000
   H     47.51000000    74.20000000    64.89000000
   H     52.24000000    75.52000000    65.27000000
   H     48.18000000    75.86000000    66.68000000
   H     51.65000000    76.81000000    66.99000000
   N     51.11000000    70.78000000    64.69000000
   C     51.47000000    69.95000000    65.83000000
   C     51.70000000    68.48000000    65.52000000
   O     52.35000000    67.74000000    66.26000000
   C     50.57000000    70.19000000    67.04000000
   C     50.74000000    71.60000000    67.59000000
   C     52.13000000    71.93000000    68.12000000
   O     52.91000000    72.60000000    67.41000000
   O     52.45000000    71.39000000    69.20000000
   H     51.84000000    71.41000000    64.40000000
   H     52.48000000    70.23000000    66.11000000
   H     50.90000000    69.42000000    67.73000000
   H     49.55000000    69.96000000    66.73000000
   H     50.08000000    71.65000000    68.46000000
   H     50.34000000    72.30000000    66.85000000
   N     51.48000000    68.06000000    64.27000000
   C     52.14000000    66.96000000    63.61000000
   C     53.54000000    67.26000000    63.08000000
   O     54.41000000    66.40000000    63.16000000
   C     51.39000000    66.55000000    62.35000000
   C     49.88000000    66.39000000    62.52000000
   C     49.42000000    65.27000000    63.45000000
   O     48.22000000    65.24000000    63.78000000
   O     50.16000000    64.46000000    64.05000000
   H     51.02000000    68.62000000    63.57000000
   H     52.26000000    66.07000000    64.24000000
   H     51.77000000    65.57000000    62.06000000
   H     51.57000000    67.19000000    61.49000000
   H     49.53000000    66.17000000    61.52000000
   H     49.50000000    67.37000000    62.79000000
   N     53.79000000    68.52000000    62.70000000
   C     55.12000000    69.10000000    62.67000000
   H     55.81000000    68.40000000    62.19900000
   H     55.09900000    70.02800000    62.09900000
   H     55.45000000    69.30600000    63.68800000
   H     53.00000000    69.13000000    62.56000000
  Ca     48.22000000    62.61000000    64.66000000
   O     47.37000000    60.95000000    66.91000000
   H     46.56000000    60.93000000    67.42000000
   H     47.26000000    60.24000000    66.27000000
   O     48.76000000    63.69000000    67.03000000
   H     49.31000000    64.41000000    66.73000000
   H     48.43000000    63.97000000    67.88000000
   O     50.47000000    61.09000000    65.08000000
   H     50.81000000    60.29000000    64.67000000
   H     51.24000000    61.49000000    65.49000000

Ca 1.00



