%chk=loop4.holoCaM-CaMKII.run80.water2.chk
%nprocshared=20
%mem=10GB
%nosave
#b3lyp/svp scf=(tight,noincore,xqc) Test 
#IOP(5/87=12) Density=Current Pop=(MK,readradii) iop(6/33=2) iop(6/42=6)

loop4.holoCaM-CaMKII.run80.water2 

   -3  1 
   C     42.57000000    50.80000000   106.43500000
   C     42.71000000    49.66000000   107.43500000
   O     41.74000000    48.92000000   107.56500000
   H     41.88500000    51.54900000   106.83300000
   H     43.54500000    51.25500000   106.26300000
   H     42.17800000    50.41300000   105.49400000
   N     43.83000000    49.37000000   108.09500000
   C     43.91000000    48.34000000   109.11500000
   C     43.38000000    48.73000000   110.48500000
   O     43.85000000    49.72000000   111.04500000
   C     45.25000000    47.61000000   109.03500000
   C     45.56000000    46.75000000   110.24500000
   O     46.23000000    47.18000000   111.21500000
   O     45.28000000    45.54000000   110.09500000
   H     44.65000000    49.91000000   107.85500000
   H     43.21000000    47.58000000   108.77500000
   H     46.08000000    48.32000000   108.93500000
   H     45.12000000    46.87000000   108.25500000
   N     42.35000000    48.04000000   110.98500000
   C     41.59000000    48.47000000   112.14500000
   C     41.85000000    47.75000000   113.45500000
   O     41.19000000    48.05000000   114.44500000
   C     40.10000000    48.68000000   111.88500000
   C     39.36000000    47.37000000   111.62500000
   C     39.98000000    49.52000000   110.61500000
   C     37.88000000    47.48000000   111.29500000
   H     42.22000000    47.09000000   110.66500000
   H     41.97000000    49.47000000   112.34500000
   H     39.73000000    49.15000000   112.80500000
   H     39.55000000    46.81000000   112.53500000
   H     39.85000000    46.93000000   110.75500000
   H     39.03000000    50.06000000   110.58500000
   H     40.69000000    50.34000000   110.70500000
   H     40.19000000    48.92000000   109.73500000
   H     37.24000000    47.92000000   112.05500000
   H     37.82000000    47.96000000   110.31500000
   H     37.60000000    46.44000000   111.09500000
   N     42.84000000    46.85000000   113.44500000
   C     43.11000000    45.88000000   114.48500000
   C     44.55000000    45.45000000   114.71500000
   O     44.82000000    45.17000000   115.87500000
   C     42.28000000    44.64000000   114.14500000
   C     42.38000000    44.08000000   112.73500000
   O     43.25000000    44.48000000   111.93500000
   O     41.63000000    43.09000000   112.53500000
   H     43.32000000    46.57000000   112.60500000
   H     42.72000000    46.21000000   115.44500000
   H     41.25000000    44.94000000   114.30500000
   H     42.55000000    43.86000000   114.85500000
   N     45.43000000    45.42000000   113.70500000
   C     46.82000000    45.08000000   113.92500000
   C     47.66000000    44.56000000   112.75500000
   O     48.80000000    44.98000000   112.60500000
   H     45.14000000    45.74000000   112.79500000
   H     46.94000000    44.31000000   114.68500000
   H     47.33000000    45.97000000   114.28500000
   N     47.21000000    43.66000000   111.88500000
   C     47.99000000    42.87000000   110.95500000
   C     48.52000000    43.61000000   109.73500000
   O     49.54000000    43.16000000   109.21500000
   C     47.24000000    41.61000000   110.50500000
   C     45.92000000    42.09000000   109.93500000
   O     45.72000000    42.61000000   108.81500000
   O     44.91000000    41.98000000   110.66500000
   H     46.31000000    43.23000000   112.07500000
   H     48.91000000    42.55000000   111.44500000
   H     47.05000000    40.97000000   111.36500000
   H     47.79000000    41.13000000   109.69500000
   N     47.98000000    44.77000000   109.36500000
   C     48.44000000    45.55000000   108.22500000
   C     48.00000000    45.01000000   106.87500000
   O     48.30000000    45.59000000   105.82500000
   H     47.18000000    45.08000000   109.89500000
   H     49.52000000    45.49000000   108.15500000
   H     48.16000000    46.60000000   108.37500000
   N     47.12000000    44.01000000   106.79500000
   C     46.36000000    43.54000000   105.65500000
   C     44.95000000    44.10000000   105.79500000
   O     44.61000000    44.59000000   106.87500000
   C     46.49000000    42.03000000   105.47500000
   C     47.89000000    41.70000000   104.98500000
   C     48.19000000    40.23000000   104.68500000
   N     49.47000000    39.89000000   104.48500000
   O     47.32000000    39.37000000   104.74500000
   H     46.82000000    43.70000000   107.70500000
   H     46.80000000    44.09000000   104.82500000
   H     45.83000000    41.59000000   104.72500000
   H     46.45000000    41.41000000   106.36500000
   H     48.63000000    42.03000000   105.70500000
   H     47.96000000    42.27000000   104.05500000
   H     50.20000000    40.58000000   104.44500000
   H     49.73000000    38.92000000   104.56500000
   N     44.18000000    43.96000000   104.71500000
   C     42.83000000    44.46000000   104.55500000
   C     41.85000000    43.37000000   104.14500000
   O     41.85000000    42.94000000   102.98500000
   C     42.72000000    45.57000000   103.50500000
   C     41.38000000    46.28000000   103.39500000
   C     43.81000000    46.59000000   103.83500000
   H     44.70000000    43.70000000   103.88500000
   H     42.56000000    44.94000000   105.49500000
   H     42.99000000    45.16000000   102.53500000
   H     40.88000000    46.46000000   104.34500000
   H     41.42000000    47.22000000   102.84500000
   H     40.66000000    45.68000000   102.84500000
   H     44.76000000    46.11000000   103.58500000
   H     43.80000000    47.49000000   103.22500000
   H     43.95000000    46.85000000   104.88500000
   N     41.01000000    42.99000000   105.10500000
   C     40.06000000    41.91000000   104.90500000
   C     38.73000000    42.54000000   104.52500000
   O     38.56000000    43.75000000   104.64500000
   C     40.07000000    41.02000000   106.14500000
   C     39.22000000    41.54000000   107.29500000
   N     39.52000000    42.60000000   108.05500000
   O     38.05000000    41.15000000   107.32500000
   H     41.11000000    43.36000000   106.03500000
   H     40.41000000    41.20000000   104.15500000
   H     41.09000000    40.95000000   106.53500000
   H     39.74000000    40.00000000   105.94500000
   H     40.42000000    43.06000000   108.08500000
   H     38.89000000    42.93000000   108.76500000
   N     37.71000000    41.81000000   104.07500000
   C     36.50000000    42.40000000   103.54500000
   C     35.76000000    43.20000000   104.60500000
   O     35.09000000    44.19000000   104.30500000
   C     35.71000000    41.28000000   102.87500000
   C     34.50000000    41.83000000   102.14500000
   C     34.68000000    42.75000000   101.10500000
   C     33.21000000    41.46000000   102.51500000
   C     33.60000000    43.09000000   100.28500000
   C     32.11000000    41.72000000   101.68500000
   C     32.32000000    42.59000000   100.59500000
   O     31.34000000    42.94000000    99.71500000
   H     37.74000000    40.80000000   104.00500000
   H     36.86000000    43.08000000   102.76500000
   H     35.39000000    40.65000000   103.70500000
   H     36.28000000    40.73000000   102.12500000
   H     35.70000000    43.05000000   100.89500000
   H     33.10000000    40.75000000   103.32500000
   H     33.66000000    43.73000000    99.42500000
   H     31.15000000    41.26000000   101.87500000
   H     30.45000000    42.69000000    99.99500000
   N     35.89000000    42.88000000   105.88500000
   C     35.33000000    43.68000000   106.96500000
   C     35.91000000    45.08000000   106.97500000
   O     35.23000000    46.04000000   107.32500000
   C     35.65000000    42.98000000   108.28500000
   C     34.91000000    43.46000000   109.52500000
   C     35.30000000    42.57000000   110.69500000
   O     34.41000000    42.15000000   111.47500000
   O     36.50000000    42.32000000   110.93500000
   H     36.35000000    42.01000000   106.09500000
   H     34.25000000    43.72000000   106.80500000
   H     36.71000000    43.23000000   108.39500000
   H     35.55000000    41.91000000   108.12500000
   H     33.83000000    43.44000000   109.32500000
   H     35.17000000    44.50000000   109.71500000
   N     37.20000000    45.26000000   106.65500000
   C     37.92000000    46.51000000   106.63500000
   C     37.66000000    47.21000000   105.31500000
   O     37.78000000    48.44000000   105.30500000
   C     39.40000000    46.16000000   106.73500000
   C     39.71000000    45.95000000   108.21500000
   C     41.12000000    45.41000000   108.41500000
   O     41.82000000    45.81000000   109.36500000
   O     41.47000000    44.36000000   107.83500000
   H     37.77000000    44.46000000   106.41500000
   H     37.64000000    47.18000000   107.44500000
   H     39.95000000    47.04000000   106.39500000
   H     39.63000000    45.27000000   106.15500000
   H     38.91000000    45.44000000   108.75500000
   H     39.71000000    46.93000000   108.69500000
   N     37.20000000    46.58000000   104.23500000
   C     37.14000000    47.13000000   102.89500000
   H     36.92400000    48.19700000   102.95000000
   H     38.09700000    46.97900000   102.39600000
   H     36.35300000    46.62900000   102.33100000
   H     37.13000000    45.58000000   104.35500000
  Ca     43.49000000    43.87000000   109.32500000
   O     43.38000000    41.53000000   107.60500000
   H     44.27000000    41.58000000   107.24500000
   H     43.38000000    40.71000000   108.10500000
   O     41.63000000    42.27000000   110.16500000
   H     40.89000000    41.93000000   109.65500000
   H     41.22000000    42.69000000   110.91500000

Ca 1.00



