%chk=loop1.holoCaM.run73.water2.chk
%nprocshared=20
%mem=10GB
%nosave
#b3lyp/svp scf=(tight,noincore,xqc) Test 
#IOP(5/87=12) Density=Current Pop=(MK,readradii) iop(6/33=2) iop(6/42=6)

loop1.holoCaM.run73.water2 

   0  1 
   C     55.46000000    66.10000000    12.79000000
   C     54.04000000    65.57000000    12.99000000
   O     53.58000000    65.08000000    11.96000000
   H     56.13700000    65.26500000    12.61300000
   H     55.48000000    66.77100000    11.93200000
   H     55.77600000    66.64100000    13.68200000
   N     53.38000000    65.51000000    14.15000000
   C     51.95000000    65.37000000    14.29000000
   C     51.28000000    66.67000000    13.85000000
   O     51.61000000    67.71000000    14.42000000
   C     51.65000000    65.08000000    15.75000000
   C     50.18000000    64.99000000    16.14000000
   O     49.88000000    64.90000000    17.35000000
   O     49.26000000    64.98000000    15.29000000
   H     53.85000000    65.86000000    14.97000000
   H     51.62000000    64.54000000    13.66000000
   H     52.10000000    65.87000000    16.35000000
   H     52.16000000    64.19000000    16.11000000
   N     50.33000000    66.56000000    12.92000000
   C     49.95000000    67.70000000    12.11000000
   C     48.48000000    68.04000000    12.34000000
   O     48.06000000    69.08000000    11.84000000
   C     50.28000000    67.45000000    10.64000000
   C     51.76000000    67.62000000    10.29000000
   C     52.15000000    69.09000000    10.46000000
   C     53.57000000    69.26000000     9.95000000
   N     54.29000000    70.44000000    10.46000000
   H     50.01000000    65.68000000    12.54000000
   H     50.41000000    68.65000000    12.40000000
   H     49.82000000    68.16000000     9.96000000
   H     49.90000000    66.50000000    10.25000000
   H     51.90000000    67.23000000     9.29000000
   H     52.41000000    67.09000000    10.99000000
   H     52.22000000    69.30000000    11.53000000
   H     51.38000000    69.70000000    10.00000000
   H     53.62000000    69.27000000     8.86000000
   H     54.12000000    68.37000000    10.24000000
   H     55.03000000    70.79000000     9.86000000
   H     53.76000000    71.22000000    10.82000000
   H     54.73000000    70.11000000    11.31000000
   N     47.67000000    67.29000000    13.09000000
   C     46.31000000    67.52000000    13.53000000
   C     46.09000000    67.54000000    15.04000000
   O     44.97000000    67.75000000    15.51000000
   C     45.38000000    66.60000000    12.75000000
   C     45.79000000    65.14000000    12.71000000
   O     45.21000000    64.40000000    11.88000000
   O     46.67000000    64.71000000    13.49000000
   H     48.03000000    66.43000000    13.48000000
   H     45.99000000    68.52000000    13.24000000
   H     45.32000000    66.96000000    11.72000000
   H     44.35000000    66.79000000    13.07000000
   N     47.13000000    67.26000000    15.82000000
   C     47.20000000    67.54000000    17.24000000
   C     46.54000000    66.56000000    18.19000000
   O     46.40000000    66.87000000    19.37000000
   H     48.01000000    67.00000000    15.39000000
   H     46.71000000    68.50000000    17.39000000
   H     48.25000000    67.72000000    17.48000000
   N     46.26000000    65.34000000    17.71000000
   C     45.72000000    64.25000000    18.49000000
   C     46.73000000    63.81000000    19.54000000
   O     46.36000000    63.18000000    20.53000000
   C     45.30000000    63.12000000    17.57000000
   C     46.29000000    62.68000000    16.49000000
   O     45.99000000    62.47000000    15.30000000
   O     47.50000000    62.63000000    16.79000000
   H     46.45000000    65.11000000    16.74000000
   H     44.81000000    64.63000000    18.96000000
   H     44.33000000    63.43000000    17.17000000
   H     45.12000000    62.22000000    18.16000000
   N     48.03000000    64.04000000    19.36000000
   C     49.21000000    63.74000000    20.15000000
   C     50.04000000    62.55000000    19.69000000
   O     50.92000000    62.09000000    20.41000000
   H     48.27000000    64.26000000    18.40000000
   H     48.80000000    63.49000000    21.13000000
   H     49.88000000    64.59000000    20.23000000
   N     49.73000000    62.02000000    18.50000000
   C     50.30000000    60.81000000    17.96000000
   C     50.70000000    60.94000000    16.50000000
   O     50.19000000    61.82000000    15.80000000
   C     49.24000000    59.72000000    18.16000000
   C     48.98000000    59.28000000    19.60000000
   O     48.07000000    60.05000000    17.44000000
   H     49.16000000    62.56000000    17.86000000
   H     51.25000000    60.59000000    18.44000000
   H     49.65000000    58.82000000    17.70000000
   H     47.91000000    60.99000000    17.31000000
   H     48.40000000    58.36000000    19.63000000
   H     49.98000000    59.09000000    19.98000000
   H     48.64000000    60.10000000    20.23000000
   N     51.59000000    60.08000000    16.01000000
   C     52.01000000    60.06000000    14.63000000
   C     51.41000000    58.83000000    13.96000000
   O     51.58000000    57.70000000    14.41000000
   C     53.53000000    60.16000000    14.47000000
   C     53.96000000    61.53000000    14.98000000
   C     54.09000000    59.91000000    13.07000000
   C     55.46000000    61.75000000    14.85000000
   H     52.04000000    59.44000000    16.65000000
   H     51.53000000    60.87000000    14.09000000
   H     53.91000000    59.36000000    15.10000000
   H     53.74000000    61.66000000    16.04000000
   H     53.46000000    62.27000000    14.36000000
   H     53.68000000    58.96000000    12.74000000
   H     53.75000000    60.66000000    12.35000000
   H     55.17000000    59.81000000    13.03000000
   H     56.08000000    60.95000000    15.24000000
   H     55.77000000    61.79000000    13.80000000
   H     55.65000000    62.71000000    15.35000000
   N     50.67000000    59.13000000    12.89000000
   C     50.21000000    58.14000000    11.94000000
   C     51.15000000    58.03000000    10.75000000
   O     52.03000000    58.88000000    10.59000000
   C     48.73000000    58.31000000    11.65000000
   C     48.44000000    59.60000000    10.89000000
   O     48.14000000    57.27000000    10.88000000
   H     50.39000000    60.10000000    12.82000000
   H     50.28000000    57.10000000    12.29000000
   H     48.17000000    58.31000000    12.59000000
   H     47.21000000    57.50000000    10.83000000
   H     47.41000000    59.52000000    10.54000000
   H     48.56000000    60.54000000    11.42000000
   H     49.01000000    59.56000000     9.96000000
   N     50.94000000    57.06000000     9.86000000
   C     51.80000000    56.75000000     8.74000000
   C     52.04000000    57.94000000     7.82000000
   O     53.21000000    58.05000000     7.46000000
   C     51.52000000    55.43000000     8.02000000
   C     51.69000000    54.20000000     8.90000000
   O     50.18000000    55.37000000     7.57000000
   H     50.21000000    56.40000000    10.07000000
   H     52.74000000    56.64000000     9.28000000
   H     52.32000000    55.48000000     7.28000000
   H     49.65000000    55.20000000     8.36000000
   H     51.13000000    53.41000000     8.39000000
   H     52.74000000    54.01000000     9.10000000
   H     51.23000000    54.37000000     9.87000000
   N     51.08000000    58.79000000     7.45000000
   C     51.25000000    59.91000000     6.54000000
   C     52.21000000    60.96000000     7.09000000
   O     53.16000000    61.33000000     6.40000000
   C     49.87000000    60.45000000     6.17000000
   C     49.87000000    61.41000000     4.98000000
   C     48.47000000    61.50000000     4.37000000
   C     48.40000000    62.40000000     3.14000000
   N     47.07000000    62.14000000     2.56000000
   H     50.15000000    58.48000000     7.67000000
   H     51.62000000    59.52000000     5.60000000
   H     49.52000000    60.99000000     7.05000000
   H     49.17000000    59.64000000     5.99000000
   H     50.54000000    61.05000000     4.20000000
   H     50.12000000    62.42000000     5.31000000
   H     47.77000000    61.80000000     5.15000000
   H     48.08000000    60.50000000     4.21000000
   H     49.20000000    62.03000000     2.48000000
   H     48.62000000    63.43000000     3.40000000
   H     46.87000000    61.15000000     2.47000000
   H     46.36000000    62.52000000     3.16000000
   H     46.99000000    62.54000000     1.63000000
   N     52.00000000    61.25000000     8.38000000
   C     52.83000000    62.13000000     9.18000000
   C     54.26000000    61.66000000     9.36000000
   O     55.20000000    62.45000000     9.36000000
   C     52.18000000    62.20000000    10.56000000
   C     50.97000000    63.14000000    10.58000000
   C     50.17000000    63.17000000    11.87000000
   O     50.11000000    62.10000000    12.52000000
   O     49.35000000    64.09000000    12.06000000
   H     51.27000000    60.76000000     8.87000000
   H     52.91000000    63.08000000     8.66000000
   H     52.86000000    62.64000000    11.29000000
   H     51.84000000    61.22000000    10.90000000
   H     50.24000000    62.70000000     9.90000000
   H     51.32000000    64.11000000    10.24000000
   N     54.47000000    60.35000000     9.54000000
   C     55.78000000    59.77000000     9.75000000
   H     56.47900000    60.55100000    10.05000000
   H     55.72200000    59.01400000    10.53300000
   H     56.12700000    59.30900000     8.82500000
   H     53.66000000    59.75000000     9.54000000
  Ca     48.31000000    62.83000000    14.24000000
   O     47.75000000    60.14000000    14.65000000
   H     46.88000000    60.07000000    14.26000000
   H     47.71000000    59.61000000    15.45000000
   O     46.76000000    62.17000000    12.10000000
   H     46.31000000    62.99000000    11.89000000
   H     46.18000000    61.49000000    11.76000000

Ca 1.00



