%chk=loop4.holoCaM-CaMKII.run95.water2.chk
%nprocshared=20
%mem=10GB
%nosave
#b3lyp/svp scf=(tight,noincore,xqc) Test 
#IOP(5/87=12) Density=Current Pop=(MK,readradii) iop(6/33=2) iop(6/42=6)

loop4.holoCaM-CaMKII.run95.water2 

   -3  1 
   C     59.43000000    20.96000000     4.46000000
   C     59.58000000    21.77000000     5.74000000
   O     59.61000000    22.99000000     5.77000000
   H     58.77500000    21.49100000     3.76900000
   H     60.40800000    20.82300000     3.99900000
   H     58.99900000    19.98700000     4.69400000
   N     59.44000000    21.10000000     6.89000000
   C     59.64000000    21.72000000     8.18000000
   C     61.06000000    22.23000000     8.42000000
   O     61.98000000    21.43000000     8.55000000
   C     59.16000000    20.71000000     9.22000000
   C     59.12000000    21.30000000    10.62000000
   O     59.15000000    22.53000000    10.83000000
   O     59.05000000    20.50000000    11.58000000
   H     59.23000000    20.11000000     6.90000000
   H     59.09000000    22.66000000     8.28000000
   H     59.77000000    19.81000000     9.16000000
   H     58.14000000    20.41000000     8.97000000
   N     61.27000000    23.55000000     8.50000000
   C     62.57000000    24.18000000     8.64000000
   C     63.08000000    24.21000000    10.07000000
   O     64.20000000    23.75000000    10.28000000
   C     62.57000000    25.57000000     8.02000000
   C     62.42000000    25.52000000     6.51000000
   C     63.91000000    26.25000000     8.29000000
   C     61.86000000    26.80000000     5.89000000
   H     60.54000000    24.24000000     8.58000000
   H     63.30000000    23.62000000     8.06000000
   H     61.74000000    26.14000000     8.45000000
   H     61.72000000    24.74000000     6.20000000
   H     63.31000000    25.25000000     5.95000000
   H     64.74000000    25.76000000     7.79000000
   H     63.79000000    27.25000000     7.86000000
   H     63.97000000    26.36000000     9.37000000
   H     61.63000000    26.62000000     4.84000000
   H     61.00000000    27.20000000     6.44000000
   H     62.67000000    27.53000000     5.91000000
   N     62.28000000    24.70000000    11.02000000
   C     62.63000000    24.83000000    12.43000000
   C     62.20000000    23.62000000    13.25000000
   O     62.53000000    23.57000000    14.44000000
   C     62.10000000    26.14000000    13.01000000
   C     60.59000000    26.25000000    12.83000000
   O     60.09000000    27.40000000    12.80000000
   O     59.90000000    25.29000000    12.43000000
   H     61.33000000    24.97000000    10.84000000
   H     63.70000000    24.79000000    12.63000000
   H     62.57000000    26.97000000    12.48000000
   H     62.27000000    26.18000000    14.08000000
   N     61.62000000    22.55000000    12.71000000
   C     61.60000000    21.22000000    13.28000000
   C     60.63000000    21.00000000    14.42000000
   O     61.07000000    21.09000000    15.56000000
   H     61.02000000    22.69000000    11.91000000
   H     62.65000000    21.09000000    13.55000000
   H     61.41000000    20.42000000    12.56000000
   N     59.31000000    21.02000000    14.21000000
   C     58.34000000    20.84000000    15.27000000
   C     57.33000000    19.74000000    14.96000000
   O     56.58000000    19.34000000    15.85000000
   C     57.83000000    22.18000000    15.77000000
   C     57.35000000    23.09000000    14.65000000
   O     57.57000000    24.32000000    14.69000000
   O     56.87000000    22.53000000    13.64000000
   H     58.96000000    21.04000000    13.26000000
   H     58.87000000    20.46000000    16.15000000
   H     58.61000000    22.76000000    16.26000000
   H     57.02000000    22.06000000    16.49000000
   N     57.28000000    19.31000000    13.70000000
   C     56.32000000    18.37000000    13.17000000
   C     55.22000000    18.99000000    12.31000000
   O     54.52000000    18.15000000    11.75000000
   H     57.90000000    19.62000000    12.97000000
   H     55.82000000    17.76000000    13.93000000
   H     56.94000000    17.76000000    12.51000000
   N     55.05000000    20.31000000    12.25000000
   C     54.12000000    21.12000000    11.48000000
   C     54.77000000    22.07000000    10.48000000
   O     55.87000000    22.58000000    10.65000000
   C     53.21000000    22.00000000    12.33000000
   C     52.34000000    21.38000000    13.43000000
   C     51.45000000    20.26000000    12.92000000
   N     51.87000000    18.99000000    13.03000000
   O     50.31000000    20.46000000    12.52000000
   H     55.74000000    20.85000000    12.74000000
   H     53.43000000    20.44000000    10.98000000
   H     52.47000000    22.35000000    11.62000000
   H     53.87000000    22.79000000    12.70000000
   H     51.73000000    22.11000000    13.95000000
   H     53.05000000    20.98000000    14.15000000
   H     52.87000000    18.86000000    13.08000000
   H     51.23000000    18.26000000    12.75000000
   N     54.00000000    22.22000000     9.39000000
   C     54.40000000    22.98000000     8.23000000
   C     53.41000000    24.13000000     8.16000000
   O     52.29000000    23.95000000     7.69000000
   C     54.37000000    22.14000000     6.95000000
   C     54.74000000    22.82000000     5.64000000
   C     55.20000000    20.86000000     7.01000000
   H     53.12000000    21.74000000     9.29000000
   H     55.42000000    23.36000000     8.35000000
   H     53.38000000    21.74000000     6.74000000
   H     54.49000000    23.88000000     5.70000000
   H     55.78000000    22.73000000     5.35000000
   H     54.15000000    22.45000000     4.80000000
   H     54.99000000    20.27000000     6.11000000
   H     56.26000000    21.10000000     6.91000000
   H     54.98000000    20.16000000     7.82000000
   N     53.89000000    25.32000000     8.54000000
   C     53.24000000    26.61000000     8.42000000
   C     53.28000000    27.07000000     6.97000000
   O     54.19000000    26.69000000     6.23000000
   C     53.93000000    27.48000000     9.46000000
   C     53.21000000    28.82000000     9.61000000
   N     52.33000000    28.89000000    10.61000000
   O     53.25000000    29.74000000     8.79000000
   H     54.82000000    25.26000000     8.91000000
   H     52.27000000    26.42000000     8.88000000
   H     55.00000000    27.57000000     9.27000000
   H     53.81000000    26.94000000    10.40000000
   H     52.09000000    28.16000000    11.27000000
   H     51.81000000    29.75000000    10.66000000
   N     52.27000000    27.80000000     6.49000000
   C     52.33000000    28.36000000     5.15000000
   C     53.69000000    28.91000000     4.75000000
   O     54.22000000    28.75000000     3.66000000
   C     51.33000000    29.52000000     5.11000000
   C     51.26000000    30.39000000     3.88000000
   C     50.96000000    29.84000000     2.63000000
   C     51.43000000    31.78000000     3.98000000
   C     50.93000000    30.60000000     1.45000000
   C     51.41000000    32.55000000     2.81000000
   C     51.13000000    31.99000000     1.55000000
   O     51.00000000    32.87000000     0.52000000
   H     51.42000000    27.86000000     7.03000000
   H     52.06000000    27.62000000     4.40000000
   H     51.48000000    30.12000000     6.01000000
   H     50.35000000    29.08000000     5.29000000
   H     50.76000000    28.79000000     2.50000000
   H     51.68000000    32.12000000     4.97000000
   H     50.78000000    30.11000000     0.50000000
   H     51.61000000    33.60000000     2.92000000
   H     51.19000000    33.76000000     0.82000000
   N     54.32000000    29.65000000     5.67000000
   C     55.63000000    30.20000000     5.39000000
   C     56.69000000    29.17000000     5.04000000
   O     57.50000000    29.41000000     4.15000000
   C     56.02000000    31.12000000     6.55000000
   C     57.32000000    31.89000000     6.35000000
   C     57.65000000    32.76000000     7.56000000
   O     58.76000000    32.59000000     8.10000000
   O     56.73000000    33.52000000     7.94000000
   H     53.90000000    29.74000000     6.59000000
   H     55.57000000    30.87000000     4.54000000
   H     56.09000000    30.42000000     7.38000000
   H     55.21000000    31.84000000     6.67000000
   H     57.22000000    32.48000000     5.44000000
   H     58.15000000    31.22000000     6.14000000
   N     56.50000000    27.96000000     5.58000000
   C     57.40000000    26.86000000     5.34000000
   C     57.08000000    26.13000000     4.04000000
   O     57.97000000    25.74000000     3.29000000
   C     57.47000000    25.92000000     6.54000000
   C     57.67000000    26.62000000     7.88000000
   C     57.68000000    25.64000000     9.04000000
   O     58.75000000    25.42000000     9.66000000
   O     56.60000000    25.23000000     9.52000000
   H     55.62000000    27.82000000     6.06000000
   H     58.44000000    27.17000000     5.22000000
   H     58.30000000    25.24000000     6.35000000
   H     56.51000000    25.42000000     6.63000000
   H     56.90000000    27.36000000     8.11000000
   H     58.60000000    27.18000000     7.77000000
   N     55.80000000    26.06000000     3.67000000
   C     55.29000000    25.45000000     2.47000000
   H     54.39800000    25.98400000     2.14200000
   H     56.04800000    25.49500000     1.68800000
   H     55.03600000    24.40900000     2.67100000
   H     55.10000000    26.47000000     4.29000000
  Ca     57.44000000    24.26000000    11.84000000
   O     55.26000000    25.20000000    13.06000000
   H     54.51000000    24.99000000    13.62000000
   H     55.69000000    25.94000000    13.50000000
   O     57.53000000    26.91000000    12.46000000
   H     58.47000000    27.04000000    12.42000000
   H     57.22000000    27.59000000    13.06000000

Ca 1.00



