%chk=loop2.apoCaM-CA-Ng.Init293.run78.water7.chk
%nprocshared=20
%mem=10GB
%nosave
#b3lyp/svp scf=(tight,noincore,xqc) Test 
#IOP(5/87=12) Density=Current Pop=(MK,readradii) iop(6/33=2) iop(6/42=6)

loop2.apoCaM-CA-Ng.Init293.run78.water7 

   -2  1 
   C     82.14000000    87.51000000    34.97000000
   C     83.25000000    88.54000000    35.05000000
   O     82.96000000    89.72000000    34.92000000
   H     81.27000000    87.95100000    34.48300000
   H     82.48200000    86.65100000    34.39300000
   H     81.86900000    87.18900000    35.97600000
   N     84.51000000    88.17000000    35.32000000
   C     85.70000000    88.95000000    35.07000000
   C     85.74000000    89.75000000    33.78000000
   O     85.80000000    90.98000000    33.79000000
   C     86.89000000    88.01000000    35.21000000
   C     88.26000000    88.66000000    35.33000000
   O     89.30000000    88.22000000    34.78000000
   O     88.45000000    89.73000000    35.95000000
   H     84.67000000    87.18000000    35.43000000
   H     85.83000000    89.76000000    35.79000000
   H     86.91000000    87.26000000    34.42000000
   H     86.67000000    87.47000000    36.13000000
   N     85.67000000    89.06000000    32.64000000
   C     85.51000000    89.68000000    31.34000000
   C     84.81000000    91.03000000    31.27000000
   O     85.33000000    91.95000000    30.63000000
   C     86.83000000    89.66000000    30.58000000
   H     85.52000000    88.08000000    32.83000000
   H     84.87000000    89.06000000    30.71000000
   H     87.34000000    88.72000000    30.78000000
   H     86.71000000    89.67000000    29.49000000
   H     87.42000000    90.56000000    30.70000000
   N     83.63000000    91.26000000    31.85000000
   C     82.88000000    92.50000000    31.84000000
   C     83.61000000    93.73000000    32.36000000
   O     83.31000000    94.85000000    31.97000000
   C     82.13000000    92.68000000    30.51000000
   C     81.31000000    91.47000000    30.10000000
   O     80.69000000    90.82000000    30.97000000
   O     80.97000000    91.28000000    28.91000000
   H     83.16000000    90.44000000    32.21000000
   H     82.14000000    92.27000000    32.61000000
   H     82.92000000    92.87000000    29.79000000
   H     81.51000000    93.57000000    30.64000000
   N     84.57000000    93.53000000    33.26000000
   C     85.44000000    94.55000000    33.81000000
   C     84.68000000    95.64000000    34.56000000
   O     83.70000000    95.34000000    35.24000000
   H     84.73000000    92.57000000    33.53000000
   H     86.00000000    95.00000000    32.99000000
   H     86.13000000    94.11000000    34.53000000
   N     85.17000000    96.88000000    34.59000000
   C     84.81000000    98.01000000    35.42000000
   C     84.72000000    97.62000000    36.89000000
   O     83.89000000    98.15000000    37.62000000
   C     83.53000000    98.62000000    34.86000000
   C     83.81000000    99.25000000    33.50000000
   N     83.26000000    98.68000000    32.43000000
   O     84.43000000   100.30000000    33.46000000
   H     85.85000000    97.07000000    33.87000000
   H     85.49000000    98.85000000    35.27000000
   H     83.11000000    99.38000000    35.52000000
   H     82.82000000    97.80000000    34.70000000
   H     82.60000000    97.92000000    32.53000000
   H     83.39000000    99.18000000    31.56000000
   N     85.64000000    96.75000000    37.31000000
   C     85.77000000    96.24000000    38.66000000
   C     85.06000000    94.92000000    38.92000000
   O     85.33000000    94.39000000    40.00000000
   H     86.32000000    96.41000000    36.66000000
   H     85.36000000    97.04000000    39.28000000
   H     86.82000000    96.12000000    38.93000000
   N     84.10000000    94.45000000    38.12000000
   C     83.48000000    93.14000000    38.20000000
   C     81.96000000    93.21000000    38.11000000
   O     81.42000000    93.95000000    37.29000000
   C     84.03000000    92.22000000    37.11000000
   C     85.55000000    92.34000000    37.11000000
   O     83.71000000    90.88000000    37.39000000
   H     83.91000000    95.01000000    37.30000000
   H     83.83000000    92.68000000    39.12000000
   H     83.58000000    92.51000000    36.16000000
   H     83.46000000    90.49000000    36.55000000
   H     85.99000000    91.61000000    36.43000000
   H     85.79000000    93.30000000    36.66000000
   H     86.00000000    92.22000000    38.10000000
   N     81.22000000    92.33000000    38.80000000
   C     79.77000000    92.25000000    38.82000000
   C     79.24000000    92.04000000    37.41000000
   O     79.76000000    91.22000000    36.67000000
   C     79.39000000    91.18000000    39.84000000
   C     79.44000000    91.81000000    41.23000000
   C     78.00000000    90.58000000    39.72000000
   C     79.86000000    90.92000000    42.40000000
   H     81.70000000    91.61000000    39.31000000
   H     79.38000000    93.19000000    39.21000000
   H     80.16000000    90.41000000    39.82000000
   H     78.48000000    92.31000000    41.40000000
   H     80.13000000    92.65000000    41.33000000
   H     77.22000000    91.30000000    39.98000000
   H     77.76000000    89.99000000    38.83000000
   H     77.88000000    89.84000000    40.51000000
   H     79.09000000    90.15000000    42.49000000
   H     80.79000000    90.44000000    42.09000000
   H     80.01000000    91.41000000    43.35000000
   N     78.18000000    92.78000000    37.06000000
   C     77.48000000    92.69000000    35.80000000
   C     77.20000000    94.05000000    35.16000000
   O     76.10000000    94.25000000    34.65000000
   C     76.18000000    91.89000000    35.92000000
   C     75.71000000    91.28000000    34.61000000
   O     76.38000000    91.37000000    33.56000000
   O     74.73000000    90.51000000    34.69000000
   H     77.87000000    93.51000000    37.69000000
   H     78.01000000    92.15000000    35.02000000
   H     75.44000000    92.60000000    36.30000000
   H     76.38000000    91.21000000    36.75000000
   N     78.07000000    95.05000000    35.35000000
   C     77.86000000    96.45000000    35.03000000
   C     78.70000000    97.45000000    35.80000000
   O     78.86000000    98.55000000    35.27000000
   C     78.01000000    96.62000000    33.52000000
   C     77.22000000    97.69000000    32.81000000
   C     77.85000000    98.51000000    31.86000000
   C     75.84000000    97.80000000    33.01000000
   C     77.15000000    99.49000000    31.16000000
   C     75.16000000    98.81000000    32.31000000
   C     75.77000000    99.66000000    31.39000000
   H     78.98000000    94.71000000    35.63000000
   H     76.81000000    96.60000000    35.28000000
   H     77.80000000    95.67000000    33.03000000
   H     79.07000000    96.78000000    33.31000000
   H     78.88000000    98.34000000    31.60000000
   H     75.36000000    97.04000000    33.61000000
   H     77.64000000    99.99000000    30.34000000
   H     74.08000000    98.79000000    32.36000000
   H     75.24000000   100.40000000    30.81000000
   N     79.22000000    97.20000000    37.00000000
   C     78.97000000    96.14000000    37.96000000
   C     77.57000000    96.01000000    38.53000000
   O     77.30000000    94.87000000    38.91000000
   C     79.91000000    96.42000000    39.13000000
   C     80.99000000    97.29000000    38.51000000
   C     80.24000000    98.12000000    37.47000000
   H     79.24000000    95.17000000    37.55000000
   H     79.31000000    96.99000000    39.84000000
   H     80.27000000    95.48000000    39.54000000
   H     81.42000000    98.00000000    39.22000000
   H     81.72000000    96.63000000    38.04000000
   H     79.62000000    98.95000000    37.82000000
   H     80.90000000    98.52000000    36.71000000
   N     76.77000000    97.08000000    38.51000000
   C     75.37000000    97.20000000    38.87000000
   C     74.94000000    96.50000000    40.15000000
   O     73.88000000    95.92000000    40.32000000
   C     74.45000000    96.78000000    37.73000000
   C     74.45000000    97.61000000    36.45000000
   C     73.72000000    98.95000000    36.43000000
   O     74.28000000    99.88000000    37.06000000
   O     72.75000000    99.17000000    35.68000000
   H     77.20000000    97.97000000    38.27000000
   H     75.08000000    98.22000000    39.11000000
   H     73.40000000    96.71000000    38.00000000
   H     74.75000000    95.78000000    37.41000000
   H     73.98000000    97.01000000    35.67000000
   H     75.51000000    97.78000000    36.25000000
   N     75.73000000    96.77000000    41.19000000
   C     75.50000000    96.33000000    42.55000000
   H     74.45500000    96.04300000    42.66700000
   H     76.13800000    95.47300000    42.76800000
   H     75.73200000    97.14200000    43.23900000
   H     76.56000000    97.34000000    41.09000000
  Ca     78.47000000    90.42000000    32.41000000
   O     77.52000000    91.54000000    30.25000000
   H     76.66000000    91.19000000    29.99000000
   H     77.88000000    91.91000000    29.45000000
   O     78.17000000    89.07000000    34.86000000
   H     77.81000000    88.26000000    35.23000000
   H     78.59000000    89.50000000    35.61000000
   O     79.20000000    93.07000000    32.66000000
   H     78.89000000    93.38000000    31.81000000
   H     79.91000000    93.67000000    32.89000000
   O     80.62000000    90.79000000    34.10000000
   H     80.30000000    90.81000000    35.00000000
   H     81.46000000    90.33000000    34.16000000
   O     76.54000000    88.56000000    32.47000000
   H     76.11000000    88.24000000    33.26000000
   H     75.99000000    88.22000000    31.75000000
   O     78.87000000    89.27000000    29.46000000
   H     79.24000000    88.51000000    29.01000000
   H     79.54000000    89.95000000    29.39000000
   O     79.38000000    87.67000000    32.45000000
   H     78.79000000    87.19000000    33.04000000
   H     79.86000000    86.99000000    31.99000000

Ca 1.00



