%chk=loop3.holoCaM.run75.water2.chk
%nprocshared=20
%mem=10GB
%nosave
#b3lyp/svp scf=(tight,noincore,xqc) Test 
#IOP(5/87=12) Density=Current Pop=(MK,readradii) iop(6/33=2) iop(6/42=6)

loop3.holoCaM.run75.water2 

   0  1 
   C     64.25000000    53.08000000    32.23000000
   C     64.40000000    54.46000000    32.85000000
   O     65.32000000    54.69000000    33.63000000
   H     63.44500000    53.09800000    31.49500000
   H     65.18200000    52.79800000    31.74000000
   H     64.01400000    52.35500000    33.00900000
   N     63.55000000    55.41000000    32.48000000
   C     63.42000000    56.69000000    33.15000000
   C     62.24000000    56.69000000    34.11000000
   O     61.13000000    57.11000000    33.80000000
   C     63.40000000    57.85000000    32.15000000
   C     63.33000000    59.22000000    32.79000000
   O     63.34000000    59.28000000    34.04000000
   O     63.13000000    60.23000000    32.08000000
   H     62.78000000    55.22000000    31.84000000
   H     64.31000000    56.84000000    33.77000000
   H     62.57000000    57.72000000    31.45000000
   H     64.35000000    57.79000000    31.63000000
   N     62.50000000    56.04000000    35.25000000
   C     61.57000000    55.61000000    36.28000000
   C     60.96000000    56.77000000    37.05000000
   O     60.05000000    56.48000000    37.83000000
   C     62.31000000    54.57000000    37.12000000
   C     62.69000000    53.29000000    36.38000000
   C     63.56000000    52.30000000    37.16000000
   C     63.80000000    50.96000000    36.48000000
   N     62.66000000    50.06000000    36.73000000
   H     63.47000000    55.92000000    35.47000000
   H     60.81000000    55.12000000    35.67000000
   H     61.69000000    54.17000000    37.92000000
   H     63.23000000    54.98000000    37.52000000
   H     63.11000000    53.52000000    35.40000000
   H     61.80000000    52.73000000    36.09000000
   H     63.18000000    52.13000000    38.16000000
   H     64.51000000    52.82000000    37.29000000
   H     64.59000000    50.39000000    36.97000000
   H     64.08000000    51.12000000    35.43000000
   H     62.78000000    49.59000000    37.61000000
   H     61.79000000    50.56000000    36.73000000
   H     62.59000000    49.27000000    36.10000000
   N     61.30000000    58.05000000    36.91000000
   C     60.48000000    59.16000000    37.32000000
   C     60.06000000    59.99000000    36.11000000
   O     59.38000000    61.00000000    36.26000000
   C     61.21000000    59.96000000    38.40000000
   C     62.63000000    60.45000000    38.12000000
   O     63.16000000    60.50000000    36.99000000
   O     63.16000000    61.01000000    39.10000000
   H     62.21000000    58.21000000    36.50000000
   H     59.54000000    58.88000000    37.81000000
   H     61.24000000    59.19000000    39.17000000
   H     60.67000000    60.83000000    38.76000000
   N     60.51000000    59.65000000    34.90000000
   C     60.04000000    60.29000000    33.69000000
   C     60.51000000    61.73000000    33.51000000
   O     59.76000000    62.46000000    32.87000000
   H     61.12000000    58.85000000    34.94000000
   H     58.95000000    60.31000000    33.70000000
   H     60.37000000    59.68000000    32.85000000
   N     61.70000000    62.16000000    33.95000000
   C     62.28000000    63.49000000    33.96000000
   C     63.11000000    63.92000000    32.76000000
   O     63.66000000    65.01000000    32.76000000
   C     63.02000000    63.63000000    35.29000000
   C     64.43000000    63.08000000    35.16000000
   N     65.36000000    63.57000000    35.98000000
   O     64.74000000    62.08000000    34.51000000
   H     62.12000000    61.45000000    34.54000000
   H     61.48000000    64.23000000    34.02000000
   H     62.51000000    63.02000000    36.04000000
   H     63.10000000    64.69000000    35.56000000
   H     65.08000000    64.21000000    36.70000000
   H     66.32000000    63.30000000    35.83000000
   N     63.15000000    63.01000000    31.78000000
   C     63.81000000    63.16000000    30.50000000
   C     65.21000000    62.57000000    30.42000000
   O     65.78000000    62.68000000    29.34000000
   H     62.85000000    62.08000000    32.04000000
   H     63.72000000    64.23000000    30.34000000
   H     63.30000000    62.49000000    29.80000000
   N     65.78000000    62.06000000    31.52000000
   C     67.16000000    61.68000000    31.71000000
   C     67.30000000    60.35000000    32.45000000
   O     66.67000000    60.05000000    33.46000000
   C     67.90000000    62.84000000    32.37000000
   C     67.65000000    64.18000000    31.73000000
   C     66.74000000    65.04000000    32.36000000
   C     68.30000000    64.51000000    30.53000000
   C     66.66000000    66.33000000    31.84000000
   C     68.27000000    65.83000000    30.06000000
   C     67.50000000    66.76000000    30.79000000
   O     67.54000000    68.09000000    30.49000000
   H     65.18000000    61.95000000    32.33000000
   H     67.62000000    61.56000000    30.73000000
   H     68.96000000    62.59000000    32.36000000
   H     67.70000000    62.84000000    33.44000000
   H     66.14000000    64.70000000    33.19000000
   H     68.98000000    63.83000000    30.04000000
   H     65.99000000    67.05000000    32.28000000
   H     68.90000000    66.18000000    29.26000000
   H     68.13000000    68.28000000    29.76000000
   N     68.06000000    59.39000000    31.93000000
   C     68.58000000    58.25000000    32.66000000
   C     69.86000000    58.61000000    33.40000000
   O     70.81000000    59.13000000    32.83000000
   C     68.76000000    57.08000000    31.69000000
   C     67.42000000    56.55000000    31.19000000
   C     69.62000000    55.98000000    32.29000000
   C     67.44000000    55.59000000    30.00000000
   H     68.38000000    59.59000000    30.99000000
   H     67.87000000    57.96000000    33.44000000
   H     69.30000000    57.37000000    30.79000000
   H     66.81000000    57.39000000    30.85000000
   H     66.95000000    56.06000000    32.05000000
   H     69.22000000    55.59000000    33.23000000
   H     69.62000000    55.14000000    31.59000000
   H     70.68000000    56.24000000    32.37000000
   H     67.73000000    54.58000000    30.30000000
   H     66.46000000    55.41000000    29.57000000
   H     68.27000000    55.83000000    29.33000000
   N     69.88000000    58.31000000    34.70000000
   C     70.93000000    58.48000000    35.68000000
   C     71.63000000    57.15000000    35.92000000
   O     71.21000000    56.05000000    35.57000000
   C     70.26000000    58.99000000    36.95000000
   O     69.28000000    58.09000000    37.44000000
   H     68.98000000    58.05000000    35.08000000
   H     71.65000000    59.17000000    35.24000000
   H     69.68000000    59.89000000    36.77000000
   H     70.97000000    59.06000000    37.78000000
   H     68.55000000    58.20000000    36.83000000
   N     72.73000000    57.21000000    36.69000000
   C     73.34000000    56.00000000    37.20000000
   C     72.42000000    55.17000000    38.09000000
   O     72.46000000    53.94000000    38.13000000
   C     74.69000000    56.30000000    37.84000000
   H     73.07000000    58.14000000    36.87000000
   H     73.53000000    55.41000000    36.31000000
   H     75.30000000    56.66000000    37.01000000
   H     74.69000000    57.16000000    38.51000000
   H     75.24000000    55.45000000    38.22000000
   N     71.56000000    55.79000000    38.90000000
   C     70.55000000    55.12000000    39.68000000
   C     69.57000000    54.30000000    38.85000000
   O     68.97000000    53.36000000    39.36000000
   C     69.81000000    56.10000000    40.59000000
   H     71.50000000    56.79000000    38.74000000
   H     71.10000000    54.42000000    40.30000000
   H     69.39000000    56.87000000    39.95000000
   H     69.15000000    55.48000000    41.21000000
   H     70.50000000    56.66000000    41.21000000
   N     69.36000000    54.66000000    37.59000000
   C     68.57000000    53.96000000    36.59000000
   C     69.43000000    53.00000000    35.78000000
   O     68.91000000    51.95000000    35.43000000
   C     67.90000000    55.04000000    35.74000000
   C     66.86000000    55.76000000    36.59000000
   C     66.27000000    57.02000000    35.97000000
   O     65.05000000    57.26000000    35.90000000
   O     67.06000000    57.98000000    35.82000000
   H     69.91000000    55.44000000    37.25000000
   H     67.73000000    53.42000000    37.02000000
   H     67.52000000    54.58000000    34.83000000
   H     68.68000000    55.74000000    35.43000000
   H     67.26000000    56.01000000    37.57000000
   H     66.05000000    55.04000000    36.76000000
   N     70.73000000    53.24000000    35.57000000
   C     71.51000000    52.53000000    34.59000000
   H     72.48900000    52.29500000    35.00700000
   H     71.00000000    51.60600000    34.31900000
   H     71.63300000    53.15200000    33.70300000
   H     71.07000000    54.13000000    35.92000000
  Ca     65.18000000    59.79000000    35.66000000
   O     67.47000000    61.15000000    36.34000000
   H     68.25000000    61.36000000    35.83000000
   H     67.70000000    61.37000000    37.24000000
   O     65.74000000    59.45000000    38.27000000
   H     65.18000000    60.12000000    38.67000000
   H     66.38000000    59.24000000    38.94000000

Ca 1.00



