%chk=loop3.apoCaM-CA-Ng.Init295.run53.water3.chk
%nprocshared=20
%mem=10GB
%nosave
#b3lyp/svp scf=(tight,noincore,xqc) Test 
#IOP(5/87=12) Density=Current Pop=(MK,readradii) iop(6/33=2) iop(6/42=6)

loop3.apoCaM-CA-Ng.Init295.run53.water3 

   0  1 
   C     84.89000000    48.38000000    38.88000000
   C     85.21000000    47.53000000    40.11000000
   O     86.02000000    47.91000000    40.94000000
   H     84.06300000    49.05200000    39.10900000
   H     85.76700000    48.96500000    38.60400000
   H     84.61000000    47.73000000    38.05100000
   N     84.51000000    46.41000000    40.27000000
   C     84.75000000    45.42000000    41.30000000
   C     86.13000000    44.79000000    41.23000000
   O     86.66000000    44.32000000    40.22000000
   C     83.61000000    44.41000000    41.29000000
   C     83.67000000    43.33000000    42.35000000
   O     83.08000000    43.38000000    43.45000000
   O     84.46000000    42.37000000    42.18000000
   H     83.93000000    46.09000000    39.50000000
   H     84.69000000    46.08000000    42.17000000
   H     83.63000000    43.79000000    40.39000000
   H     82.63000000    44.89000000    41.27000000
   N     86.75000000    44.67000000    42.41000000
   C     88.10000000    44.18000000    42.63000000
   C     88.34000000    42.78000000    42.09000000
   O     89.49000000    42.33000000    42.03000000
   C     88.53000000    44.25000000    44.09000000
   C     88.60000000    45.69000000    44.57000000
   C     89.54000000    45.96000000    45.74000000
   C     89.70000000    47.47000000    45.87000000
   N     90.66000000    47.89000000    46.90000000
   H     86.14000000    44.76000000    43.21000000
   H     88.85000000    44.74000000    42.06000000
   H     89.52000000    43.80000000    44.21000000
   H     87.88000000    43.63000000    44.72000000
   H     87.56000000    45.92000000    44.83000000
   H     88.87000000    46.37000000    43.77000000
   H     90.54000000    45.56000000    45.57000000
   H     89.12000000    45.58000000    46.68000000
   H     88.73000000    47.87000000    46.17000000
   H     89.96000000    47.83000000    44.87000000
   H     91.47000000    47.30000000    46.81000000
   H     90.97000000    48.84000000    46.78000000
   H     90.27000000    47.76000000    47.82000000
   N     87.34000000    42.05000000    41.61000000
   C     87.53000000    40.75000000    40.99000000
   C     86.57000000    40.60000000    39.82000000
   O     86.32000000    39.50000000    39.35000000
   C     87.49000000    39.65000000    42.05000000
   C     86.32000000    39.84000000    43.00000000
   O     85.22000000    39.43000000    42.57000000
   O     86.41000000    40.20000000    44.20000000
   H     86.38000000    42.30000000    41.79000000
   H     88.49000000    40.61000000    40.50000000
   H     88.45000000    39.60000000    42.56000000
   H     87.30000000    38.76000000    41.45000000
   N     86.02000000    41.69000000    39.28000000
   C     85.07000000    41.61000000    38.18000000
   C     83.75000000    40.95000000    38.54000000
   O     82.97000000    40.77000000    37.61000000
   H     86.27000000    42.54000000    39.77000000
   H     85.53000000    41.01000000    37.40000000
   H     84.91000000    42.61000000    37.77000000
   N     83.40000000    40.46000000    39.74000000
   C     82.14000000    39.81000000    40.06000000
   C     81.52000000    40.40000000    41.32000000
   O     82.11000000    40.36000000    42.40000000
   C     82.43000000    38.31000000    40.14000000
   C     81.17000000    37.49000000    40.39000000
   N     81.38000000    36.17000000    40.49000000
   O     80.08000000    38.03000000    40.53000000
   H     84.13000000    40.48000000    40.43000000
   H     81.56000000    40.02000000    39.16000000
   H     83.00000000    38.21000000    41.07000000
   H     82.95000000    37.86000000    39.30000000
   H     82.27000000    35.71000000    40.63000000
   H     80.52000000    35.67000000    40.67000000
   N     80.37000000    41.04000000    41.13000000
   C     79.77000000    42.05000000    41.98000000
   C     79.53000000    41.79000000    43.46000000
   O     78.99000000    42.70000000    44.09000000
   H     79.84000000    40.81000000    40.30000000
   H     78.84000000    42.45000000    41.59000000
   H     80.49000000    42.87000000    42.00000000
   N     79.83000000    40.62000000    44.02000000
   C     79.68000000    40.22000000    45.40000000
   C     80.71000000    40.92000000    46.27000000
   O     81.85000000    41.01000000    45.81000000
   C     79.70000000    38.70000000    45.58000000
   C     78.45000000    38.04000000    45.04000000
   C     78.33000000    37.71000000    43.69000000
   C     77.39000000    37.69000000    45.89000000
   C     77.25000000    36.98000000    43.17000000
   C     76.29000000    36.98000000    45.41000000
   C     76.28000000    36.51000000    44.08000000
   O     75.24000000    35.78000000    43.59000000
   H     80.28000000    39.93000000    43.42000000
   H     78.71000000    40.55000000    45.78000000
   H     79.65000000    38.48000000    46.64000000
   H     80.57000000    38.20000000    45.18000000
   H     79.15000000    38.07000000    43.08000000
   H     77.37000000    37.95000000    46.94000000
   H     77.23000000    36.69000000    42.13000000
   H     75.49000000    36.68000000    46.07000000
   H     74.67000000    35.44000000    44.29000000
   N     80.36000000    41.31000000    47.50000000
   C     81.20000000    41.99000000    48.47000000
   C     82.21000000    41.04000000    49.11000000
   O     82.83000000    40.18000000    48.49000000
   C     81.81000000    43.27000000    47.91000000
   C     82.71000000    43.91000000    48.96000000
   C     80.68000000    44.16000000    47.40000000
   C     83.17000000    45.25000000    48.39000000
   H     79.38000000    41.34000000    47.71000000
   H     80.51000000    42.31000000    49.24000000
   H     82.46000000    43.02000000    47.07000000
   H     83.65000000    43.35000000    49.02000000
   H     82.23000000    44.01000000    49.93000000
   H     80.04000000    44.46000000    48.23000000
   H     81.09000000    45.07000000    46.97000000
   H     80.12000000    43.57000000    46.67000000
   H     83.95000000    45.63000000    49.06000000
   H     83.47000000    45.08000000    47.36000000
   H     82.30000000    45.91000000    48.41000000
   N     82.45000000    41.25000000    50.41000000
   C     83.57000000    40.63000000    51.09000000
   C     83.34000000    40.14000000    52.52000000
   O     84.19000000    39.46000000    53.09000000
   C     84.84000000    41.48000000    51.06000000
   O     84.47000000    42.78000000    51.47000000
   H     82.02000000    42.01000000    50.92000000
   H     83.81000000    39.71000000    50.57000000
   H     85.18000000    41.43000000    50.03000000
   H     85.63000000    41.06000000    51.68000000
   H     85.27000000    43.28000000    51.30000000
   N     82.29000000    40.68000000    53.13000000
   C     81.94000000    40.55000000    54.53000000
   C     83.12000000    40.71000000    55.48000000
   O     83.54000000    39.78000000    56.16000000
   C     81.17000000    39.24000000    54.73000000
   H     81.73000000    41.32000000    52.58000000
   H     81.30000000    41.38000000    54.85000000
   H     81.86000000    38.40000000    54.62000000
   H     80.80000000    39.31000000    55.75000000
   H     80.40000000    39.05000000    53.98000000
   N     83.84000000    41.84000000    55.45000000
   C     83.74000000    43.14000000    54.81000000
   C     82.98000000    44.10000000    55.70000000
   O     83.09000000    43.98000000    56.92000000
   C     85.17000000    43.54000000    54.47000000
   H     84.60000000    41.84000000    56.11000000
   H     83.23000000    42.97000000    53.85000000
   H     85.70000000    43.64000000    55.42000000
   H     85.58000000    42.73000000    53.88000000
   H     85.24000000    44.47000000    53.91000000
   N     82.32000000    45.17000000    55.25000000
   C     82.12000000    45.57000000    53.87000000
   C     80.66000000    45.86000000    53.54000000
   O     80.17000000    45.72000000    52.42000000
   C     82.95000000    46.82000000    53.62000000
   C     82.81000000    47.23000000    52.15000000
   C     83.63000000    48.47000000    51.82000000
   O     84.60000000    48.25000000    51.07000000
   O     83.30000000    49.61000000    52.19000000
   H     81.88000000    45.74000000    55.96000000
   H     82.52000000    44.74000000    53.28000000
   H     84.00000000    46.56000000    53.80000000
   H     82.65000000    47.65000000    54.26000000
   H     81.78000000    47.35000000    51.80000000
   H     83.20000000    46.37000000    51.62000000
   N     79.91000000    46.24000000    54.58000000
   C     78.61000000    46.86000000    54.46000000
   H     77.90100000    46.34400000    55.10700000
   H     78.67700000    47.90700000    54.75700000
   H     78.27000000    46.79600000    53.42600000
   H     80.37000000    46.22000000    55.48000000
  Ca     83.93000000    40.82000000    44.23000000
   O     84.33000000    39.56000000    46.50000000
   H     84.05000000    39.88000000    47.35000000
   H     84.61000000    38.66000000    46.65000000
   O     82.82000000    38.20000000    43.91000000
   H     82.28000000    37.43000000    44.05000000
   H     83.67000000    37.86000000    43.62000000
   O     85.25000000    42.66000000    45.81000000
   H     85.22000000    43.59000000    45.59000000
   H     85.73000000    42.62000000    46.64000000

Ca 1.00



