%chk=loop1.holoCaM.run40.water2.chk
%nprocshared=20
%mem=10GB
%nosave
#b3lyp/svp scf=(tight,noincore,xqc) Test 
#IOP(5/87=12) Density=Current Pop=(MK,readradii) iop(6/33=2) iop(6/42=6)

loop1.holoCaM.run40.water2 

   0  1 
   C     67.21000000    94.03000000   114.46000000
   C     67.59000000    94.09000000   115.93000000
   O     66.77000000    93.63000000   116.73000000
   H     66.37500000    94.70500000   114.27300000
   H     68.06300000    94.33000000   113.85100000
   H     66.91800000    93.01200000   114.20100000
   N     68.73000000    94.65000000   116.34000000
   C     69.12000000    94.78000000   117.73000000
   C     68.61000000    96.14000000   118.15000000
   O     69.12000000    97.11000000   117.59000000
   C     70.65000000    94.75000000   117.76000000
   C     71.16000000    94.87000000   119.19000000
   O     72.32000000    95.34000000   119.26000000
   O     70.49000000    94.52000000   120.19000000
   H     69.34000000    95.03000000   115.63000000
   H     68.74000000    93.97000000   118.35000000
   H     71.17000000    95.43000000   117.09000000
   H     70.96000000    93.75000000   117.47000000
   N     67.57000000    96.14000000   119.00000000
   C     66.71000000    97.25000000   119.35000000
   C     67.07000000    97.85000000   120.70000000
   O     66.57000000    98.94000000   120.97000000
   C     65.25000000    96.83000000   119.31000000
   C     64.13000000    97.85000000   119.06000000
   C     64.36000000    98.96000000   118.04000000
   C     63.08000000    99.60000000   117.52000000
   N     62.43000000    98.61000000   116.64000000
   H     67.35000000    95.22000000   119.35000000
   H     66.92000000    98.09000000   118.68000000
   H     64.96000000    96.29000000   120.21000000
   H     65.16000000    96.10000000   118.50000000
   H     63.91000000    98.30000000   120.03000000
   H     63.17000000    97.36000000   118.88000000
   H     64.87000000    98.53000000   117.18000000
   H     65.02000000    99.70000000   118.49000000
   H     63.27000000   100.42000000   116.84000000
   H     62.38000000    99.87000000   118.32000000
   H     63.00000000    98.35000000   115.85000000
   H     62.12000000    97.80000000   117.15000000
   H     61.61000000    99.02000000   116.21000000
   N     67.91000000    97.23000000   121.53000000
   C     68.56000000    97.90000000   122.65000000
   C     70.04000000    98.17000000   122.44000000
   O     70.48000000    99.03000000   123.20000000
   C     68.19000000    97.26000000   123.98000000
   C     68.49000000    95.77000000   124.04000000
   O     68.04000000    95.04000000   124.95000000
   O     69.26000000    95.22000000   123.23000000
   H     68.32000000    96.35000000   121.26000000
   H     68.13000000    98.90000000   122.72000000
   H     67.11000000    97.35000000   124.13000000
   H     68.60000000    97.71000000   124.89000000
   N     70.75000000    97.67000000   121.43000000
   C     72.11000000    98.03000000   121.08000000
   C     73.17000000    97.35000000   121.93000000
   O     73.86000000    98.00000000   122.71000000
   H     70.24000000    97.01000000   120.85000000
   H     72.30000000    99.09000000   120.95000000
   H     72.25000000    97.70000000   120.05000000
   N     73.36000000    96.03000000   121.80000000
   C     74.47000000    95.36000000   122.44000000
   C     75.25000000    94.43000000   121.52000000
   O     76.31000000    93.96000000   121.93000000
   C     73.84000000    94.67000000   123.65000000
   C     72.63000000    93.80000000   123.33000000
   O     71.90000000    93.53000000   124.30000000
   O     72.51000000    93.28000000   122.20000000
   H     72.76000000    95.54000000   121.15000000
   H     75.14000000    96.11000000   122.84000000
   H     73.46000000    95.28000000   124.48000000
   H     74.60000000    94.04000000   124.11000000
   N     74.71000000    94.27000000   120.31000000
   C     75.29000000    93.41000000   119.30000000
   C     74.77000000    91.98000000   119.28000000
   O     75.45000000    91.09000000   118.78000000
   H     73.79000000    94.63000000   120.11000000
   H     76.34000000    93.14000000   119.45000000
   H     75.05000000    93.82000000   118.32000000
   N     73.57000000    91.77000000   119.83000000
   C     72.97000000    90.46000000   119.99000000
   C     71.46000000    90.53000000   119.88000000
   O     70.92000000    91.51000000   120.39000000
   C     73.38000000    89.87000000   121.33000000
   C     74.70000000    89.11000000   121.26000000
   O     73.58000000    90.87000000   122.30000000
   H     73.09000000    92.57000000   120.20000000
   H     73.37000000    89.74000000   119.27000000
   H     72.54000000    89.21000000   121.56000000
   H     72.99000000    91.58000000   122.04000000
   H     74.84000000    88.70000000   122.26000000
   H     74.68000000    88.35000000   120.48000000
   H     75.51000000    89.81000000   121.05000000
   N     70.84000000    89.55000000   119.22000000
   C     69.40000000    89.44000000   119.10000000
   C     68.96000000    88.47000000   120.19000000
   O     69.37000000    87.31000000   120.19000000
   C     69.07000000    88.87000000   117.72000000
   C     69.33000000    89.75000000   116.50000000
   C     67.63000000    88.42000000   117.55000000
   C     69.49000000    91.25000000   116.76000000
   H     71.40000000    88.85000000   118.76000000
   H     68.80000000    90.33000000   119.27000000
   H     69.64000000    87.95000000   117.57000000
   H     68.62000000    89.61000000   115.68000000
   H     70.19000000    89.28000000   116.04000000
   H     67.39000000    87.84000000   118.44000000
   H     66.97000000    89.26000000   117.34000000
   H     67.52000000    87.84000000   116.63000000
   H     70.54000000    91.48000000   116.95000000
   H     69.25000000    91.84000000   115.87000000
   H     68.93000000    91.59000000   117.63000000
   N     68.23000000    88.88000000   121.23000000
   C     67.61000000    88.00000000   122.19000000
   C     66.26000000    87.50000000   121.67000000
   O     65.85000000    87.88000000   120.58000000
   C     67.51000000    88.80000000   123.49000000
   C     66.52000000    89.92000000   123.76000000
   O     67.21000000    87.85000000   124.48000000
   H     68.02000000    89.86000000   121.20000000
   H     68.30000000    87.19000000   122.44000000
   H     68.53000000    89.14000000   123.67000000
   H     67.39000000    88.20000000   125.36000000
   H     66.74000000    90.59000000   124.60000000
   H     66.53000000    90.46000000   122.82000000
   H     65.51000000    89.50000000   123.83000000
   N     65.60000000    86.68000000   122.49000000
   C     64.39000000    85.93000000   122.23000000
   C     63.28000000    86.80000000   121.68000000
   O     62.76000000    86.60000000   120.59000000
   C     63.91000000    85.11000000   123.43000000
   C     64.83000000    83.91000000   123.63000000
   O     63.95000000    85.86000000   124.62000000
   H     66.01000000    86.62000000   123.41000000
   H     64.63000000    85.20000000   121.46000000
   H     62.92000000    84.72000000   123.19000000
   H     63.38000000    85.32000000   125.17000000
   H     64.92000000    83.41000000   122.67000000
   H     65.78000000    84.22000000   124.06000000
   H     64.35000000    83.17000000   124.28000000
   N     62.96000000    87.93000000   122.32000000
   C     61.89000000    88.80000000   121.88000000
   C     62.29000000    89.62000000   120.67000000
   O     61.46000000    89.74000000   119.77000000
   C     61.42000000    89.61000000   123.09000000
   C     62.26000000    90.84000000   123.40000000
   C     61.89000000    91.52000000   124.72000000
   C     62.60000000    92.84000000   125.03000000
   N     62.43000000    93.24000000   126.43000000
   H     63.25000000    87.95000000   123.28000000
   H     61.00000000    88.27000000   121.54000000
   H     61.35000000    88.95000000   123.96000000
   H     60.39000000    89.96000000   123.05000000
   H     62.21000000    91.57000000   122.59000000
   H     63.25000000    90.43000000   123.59000000
   H     62.04000000    90.78000000   125.50000000
   H     60.82000000    91.67000000   124.70000000
   H     62.23000000    93.65000000   124.40000000
   H     63.67000000    92.77000000   124.82000000
   H     62.74000000    94.20000000   126.41000000
   H     61.44000000    93.29000000   126.65000000
   H     62.89000000    92.58000000   127.04000000
   N     63.56000000    89.99000000   120.45000000
   C     64.10000000    90.56000000   119.24000000
   C     64.04000000    89.68000000   118.00000000
   O     63.75000000    90.21000000   116.93000000
   C     65.56000000    90.96000000   119.48000000
   C     65.74000000    92.13000000   120.45000000
   C     67.19000000    92.49000000   120.75000000
   O     67.89000000    91.61000000   121.29000000
   O     67.65000000    93.65000000   120.73000000
   H     64.27000000    89.66000000   121.09000000
   H     63.59000000    91.48000000   118.96000000
   H     65.95000000    91.27000000   118.51000000
   H     66.14000000    90.13000000   119.87000000
   H     65.33000000    91.98000000   121.44000000
   H     65.15000000    93.00000000   120.18000000
   N     64.37000000    88.40000000   118.13000000
   C     64.11000000    87.49000000   117.03000000
   H     63.29200000    87.87900000   116.42300000
   H     65.00500000    87.39700000   116.41600000
   H     63.83500000    86.51200000   117.42400000
   H     64.55000000    87.95000000   119.02000000
  Ca     69.85000000    92.98000000   122.21200000
   O     68.65000000    92.42000000   124.57200000
   H     69.16000000    91.99000000   125.26200000
   H     68.62000000    93.34000000   124.84200000
   O     70.71000000    90.76000000   123.13200000
   H     71.66000000    90.79000000   123.24200000
   H     70.38000000    90.47000000   123.98200000

Ca 1.00



