%chk=loop1.holoCaM.run65.water2.chk
%nprocshared=20
%mem=10GB
%nosave
#b3lyp/svp scf=(tight,noincore,xqc) Test 
#IOP(5/87=12) Density=Current Pop=(MK,readradii) iop(6/33=2) iop(6/42=6)

loop1.holoCaM.run65.water2 

   0  1 
   C     42.70000000    83.59000000    13.16000000
   C     41.33000000    83.19000000    13.67000000
   O     40.47000000    82.82000000    12.88000000
   H     43.43000000    82.83600000    13.45200000
   H     42.67500000    83.66900000    12.07300000
   H     42.98100000    84.55200000    13.58800000
   N     41.12000000    83.22000000    14.99000000
   C     39.78000000    83.11000000    15.53000000
   C     38.99000000    84.33000000    15.09000000
   O     39.41000000    85.48000000    15.24000000
   C     39.92000000    82.93000000    17.04000000
   C     38.64000000    83.03000000    17.86000000
   O     38.81000000    83.26000000    19.08000000
   O     37.56000000    82.71000000    17.31000000
   H     41.82000000    83.48000000    15.67000000
   H     39.39000000    82.19000000    15.09000000
   H     40.58000000    83.73000000    17.35000000
   H     40.32000000    81.95000000    17.30000000
   N     37.84000000    83.97000000    14.52000000
   C     36.98000000    84.90000000    13.82000000
   C     35.69000000    85.31000000    14.53000000
   O     35.35000000    86.48000000    14.44000000
   C     36.66000000    84.34000000    12.44000000
   C     37.52000000    84.95000000    11.34000000
   C     37.44000000    84.19000000    10.02000000
   C     38.41000000    84.85000000     9.04000000
   N     38.29000000    84.43000000     7.64000000
   H     37.63000000    82.99000000    14.38000000
   H     37.49000000    85.84000000    13.61000000
   H     35.61000000    84.40000000    12.14000000
   H     36.83000000    83.26000000    12.49000000
   H     38.58000000    84.90000000    11.60000000
   H     37.25000000    86.01000000    11.24000000
   H     36.43000000    84.30000000     9.64000000
   H     37.74000000    83.15000000    10.10000000
   H     39.38000000    84.61000000     9.47000000
   H     38.25000000    85.93000000     9.04000000
   H     37.49000000    84.76000000     7.12000000
   H     39.13000000    84.72000000     7.15000000
   H     38.13000000    83.44000000     7.52000000
   N     35.06000000    84.40000000    15.29000000
   C     34.06000000    84.88000000    16.21000000
   C     34.66000000    85.32000000    17.54000000
   O     33.94000000    85.92000000    18.33000000
   C     32.94000000    83.85000000    16.37000000
   C     33.33000000    82.43000000    16.74000000
   O     32.40000000    81.61000000    16.82000000
   O     34.55000000    82.15000000    16.82000000
   H     35.45000000    83.48000000    15.37000000
   H     33.53000000    85.72000000    15.77000000
   H     32.39000000    83.87000000    15.43000000
   H     32.21000000    84.14000000    17.13000000
   N     35.98000000    85.21000000    17.73000000
   C     36.68000000    85.71000000    18.90000000
   C     36.22000000    84.98000000    20.15000000
   O     36.20000000    85.57000000    21.22000000
   H     36.52000000    84.65000000    17.10000000
   H     36.49000000    86.78000000    19.05000000
   H     37.74000000    85.54000000    18.70000000
   N     35.89000000    83.68000000    20.12000000
   C     35.33000000    82.94000000    21.23000000
   C     36.39000000    82.28000000    22.11000000
   O     36.11000000    81.61000000    23.09000000
   C     34.33000000    81.96000000    20.63000000
   C     34.86000000    80.83000000    19.77000000
   O     34.06000000    79.90000000    19.51000000
   O     36.08000000    80.72000000    19.50000000
   H     35.86000000    83.19000000    19.24000000
   H     34.79000000    83.62000000    21.88000000
   H     33.47000000    82.40000000    20.11000000
   H     33.94000000    81.39000000    21.48000000
   N     37.63000000    82.39000000    21.62000000
   C     38.78000000    81.83000000    22.32000000
   C     39.15000000    80.42000000    21.91000000
   O     39.91000000    79.76000000    22.61000000
   H     37.86000000    82.72000000    20.70000000
   H     38.71000000    81.92000000    23.41000000
   H     39.60000000    82.46000000    22.00000000
   N     38.57000000    79.91000000    20.81000000
   C     38.84000000    78.60000000    20.26000000
   C     39.03000000    78.72000000    18.75000000
   O     38.40000000    79.58000000    18.15000000
   C     37.76000000    77.57000000    20.58000000
   C     38.13000000    76.94000000    21.92000000
   O     36.44000000    78.07000000    20.63000000
   H     37.91000000    80.50000000    20.33000000
   H     39.82000000    78.24000000    20.58000000
   H     37.78000000    76.76000000    19.85000000
   H     36.51000000    79.03000000    20.62000000
   H     37.41000000    76.23000000    22.32000000
   H     39.05000000    76.37000000    21.83000000
   H     38.30000000    77.66000000    22.72000000
   N     39.66000000    77.72000000    18.12000000
   C     39.76000000    77.57000000    16.69000000
   C     39.08000000    76.34000000    16.10000000
   O     39.39000000    75.29000000    16.65000000
   C     41.23000000    77.74000000    16.31000000
   C     41.49000000    79.24000000    16.18000000
   C     41.58000000    77.05000000    15.00000000
   C     42.93000000    79.73000000    16.13000000
   H     40.23000000    77.09000000    18.67000000
   H     39.21000000    78.40000000    16.26000000
   H     41.91000000    77.38000000    17.09000000
   H     41.02000000    79.79000000    17.00000000
   H     40.99000000    79.60000000    15.28000000
   H     40.90000000    77.37000000    14.21000000
   H     42.59000000    77.35000000    14.71000000
   H     41.63000000    75.98000000    15.20000000
   H     43.54000000    79.36000000    15.30000000
   H     42.86000000    80.81000000    15.96000000
   H     43.34000000    79.62000000    17.13000000
   N     38.22000000    76.45000000    15.08000000
   C     37.64000000    75.28000000    14.45000000
   C     38.14000000    75.21000000    13.02000000
   O     38.92000000    75.98000000    12.45000000
   C     36.13000000    75.40000000    14.59000000
   C     35.40000000    76.67000000    14.13000000
   O     35.41000000    74.33000000    14.03000000
   H     37.85000000    77.33000000    14.76000000
   H     37.90000000    74.35000000    14.97000000
   H     35.88000000    75.28000000    15.65000000
   H     34.73000000    73.98000000    14.61000000
   H     34.31000000    76.65000000    14.16000000
   H     35.74000000    77.49000000    14.77000000
   H     35.68000000    76.93000000    13.11000000
   N     37.63000000    74.24000000    12.26000000
   C     38.12000000    73.84000000    10.95000000
   C     38.07000000    74.93000000     9.89000000
   O     39.09000000    75.25000000     9.28000000
   C     37.44000000    72.56000000    10.46000000
   C     38.12000000    71.90000000     9.27000000
   O     37.28000000    71.66000000    11.53000000
   H     37.01000000    73.57000000    12.68000000
   H     39.14000000    73.49000000    11.03000000
   H     36.44000000    72.89000000    10.15000000
   H     37.64000000    70.79000000    11.34000000
   H     39.07000000    71.47000000     9.60000000
   H     37.40000000    71.18000000     8.89000000
   H     38.33000000    72.63000000     8.49000000
   N     36.95000000    75.65000000     9.82000000
   C     36.92000000    76.86000000     9.02000000
   C     37.96000000    77.94000000     9.26000000
   O     38.22000000    78.68000000     8.32000000
   C     35.47000000    77.33000000     9.05000000
   C     34.51000000    76.27000000     8.51000000
   C     33.13000000    76.87000000     8.27000000
   C     32.35000000    75.85000000     7.44000000
   N     30.90000000    75.94000000     7.64000000
   H     36.13000000    75.28000000    10.28000000
   H     37.10000000    76.61000000     7.97000000
   H     35.27000000    78.17000000     8.38000000
   H     35.26000000    77.64000000    10.08000000
   H     34.35000000    75.48000000     9.24000000
   H     34.93000000    75.73000000     7.67000000
   H     33.28000000    77.76000000     7.65000000
   H     32.64000000    77.08000000     9.22000000
   H     32.67000000    74.89000000     7.83000000
   H     32.65000000    76.07000000     6.41000000
   H     30.31000000    75.29000000     7.13000000
   H     30.67000000    75.85000000     8.62000000
   H     30.62000000    76.87000000     7.39000000
   N     38.56000000    78.06000000    10.45000000
   C     39.48000000    79.11000000    10.86000000
   C     40.90000000    78.55000000    10.82000000
   O     41.87000000    79.17000000    10.39000000
   C     39.04000000    79.53000000    12.26000000
   C     37.63000000    80.08000000    12.45000000
   C     37.22000000    80.21000000    13.92000000
   O     37.49000000    79.32000000    14.76000000
   O     36.62000000    81.21000000    14.35000000
   H     38.27000000    77.39000000    11.14000000
   H     39.48000000    79.94000000    10.16000000
   H     39.73000000    80.28000000    12.64000000
   H     39.21000000    78.70000000    12.94000000
   H     36.82000000    79.49000000    12.04000000
   H     37.61000000    81.10000000    12.05000000
   N     41.12000000    77.28000000    11.17000000
   C     42.36000000    76.55000000    10.96000000
   H     43.14200000    76.97400000    11.59000000
   H     42.21400000    75.50200000    11.22000000
   H     42.65500000    76.62700000     9.91400000
   H     40.27000000    76.79000000    11.40000000
  Ca     36.30000000    80.37000000    16.90000000
   O     35.87000000    77.87000000    17.77000000
   H     35.13000000    77.39000000    17.41000000
   H     35.85000000    77.69000000    18.70000000
   O     33.89000000    79.53000000    15.96000000
   H     33.29000000    80.21000000    16.28000000
   H     33.32000000    78.86000000    15.59000000

Ca 1.00



