%chk=loop3.apoCaM-CA-Ng.Init31.run24.water6.chk
%nprocshared=20
%mem=10GB
%nosave
#b3lyp/svp scf=(tight,noincore,xqc) Test 
#IOP(5/87=12) Density=Current Pop=(MK,readradii) iop(6/33=2) iop(6/42=6)

loop3.apoCaM-CA-Ng.Init31.run24.water6 

   0  1 
   C     99.99000000    46.22000000    10.08000000
   C    101.37000000    46.00000000     9.47000000
   O    101.62000000    45.02000000     8.77000000
   H     99.25800000    45.60800000     9.55200000
   H    100.00800000    45.93700000    11.13300000
   H     99.71600000    47.27100000     9.99000000
   N    102.33000000    46.93000000     9.60000000
   C    103.62000000    46.81000000     8.95000000
   C    104.67000000    46.06000000     9.75000000
   O    104.52000000    45.88000000    10.96000000
   C    104.07000000    48.21000000     8.53000000
   C    104.29000000    49.18000000     9.67000000
   O    105.42000000    49.37000000    10.19000000
   O    103.22000000    49.69000000    10.06000000
   H    102.17000000    47.70000000    10.23000000
   H    103.59000000    46.40000000     7.94000000
   H    103.40000000    48.69000000     7.81000000
   H    105.03000000    48.10000000     8.02000000
   N    105.74000000    45.63000000     9.09000000
   C    106.99000000    45.06000000     9.56000000
   C    107.01000000    43.54000000     9.55000000
   O    108.01000000    42.95000000     9.97000000
   C    108.22000000    45.63000000     8.86000000
   C    108.49000000    47.08000000     9.27000000
   C    109.00000000    47.22000000    10.70000000
   C    109.22000000    48.72000000    10.80000000
   N    108.05000000    49.57000000    11.06000000
   H    105.68000000    45.70000000     8.08000000
   H    107.09000000    45.35000000    10.61000000
   H    108.13000000    45.60000000     7.78000000
   H    109.05000000    44.96000000     9.09000000
   H    107.62000000    47.72000000     9.12000000
   H    109.24000000    47.48000000     8.58000000
   H    109.95000000    46.69000000    10.82000000
   H    108.30000000    46.80000000    11.42000000
   H    109.76000000    49.11000000     9.93000000
   H    109.91000000    48.99000000    11.60000000
   H    108.27000000    50.53000000    10.83000000
   H    107.33000000    49.34000000    10.40000000
   H    107.60000000    49.40000000    11.95000000
   N    106.02000000    42.79000000     9.06000000
   C    105.96000000    41.34000000     9.15000000
   C    105.21000000    40.75000000     7.97000000
   O    104.38000000    39.85000000     8.10000000
   C    105.36000000    40.88000000    10.47000000
   C    104.18000000    41.74000000    10.90000000
   O    103.14000000    41.72000000    10.21000000
   O    104.33000000    42.39000000    11.96000000
   H    105.24000000    43.29000000     8.66000000
   H    106.98000000    40.97000000     9.01000000
   H    106.14000000    41.00000000    11.22000000
   H    105.07000000    39.83000000    10.39000000
   N    105.47000000    41.20000000     6.74000000
   C    104.83000000    40.85000000     5.49000000
   C    103.41000000    41.35000000     5.29000000
   O    102.75000000    41.80000000     6.23000000
   H    106.31000000    41.75000000     6.63000000
   H    104.89000000    39.77000000     5.37000000
   H    105.52000000    41.34000000     4.80000000
   N    102.87000000    41.18000000     4.08000000
   C    103.45000000    40.66000000     2.86000000
   C    102.60000000    39.67000000     2.07000000
   O    101.54000000    40.04000000     1.56000000
   C    103.85000000    41.86000000     2.01000000
   C    104.70000000    41.66000000     0.76000000
   N    105.87000000    42.30000000     0.72000000
   O    104.28000000    40.88000000    -0.10000000
   H    101.98000000    41.65000000     4.11000000
   H    104.32000000    40.12000000     3.25000000
   H    104.24000000    42.64000000     2.65000000
   H    103.03000000    42.34000000     1.47000000
   H    106.09000000    42.77000000     1.59000000
   H    106.55000000    41.96000000     0.07000000
   N    102.93000000    38.44000000     1.70000000
   C    104.08000000    37.64000000     2.09000000
   C    103.95000000    37.03000000     3.48000000
   O    103.47000000    37.60000000     4.45000000
   H    102.30000000    37.89000000     1.12000000
   H    104.97000000    38.23000000     1.91000000
   H    104.29000000    36.79000000     1.45000000
   N    104.27000000    35.73000000     3.57000000
   C    103.84000000    34.93000000     4.70000000
   C    104.79000000    33.76000000     4.93000000
   O    105.47000000    33.20000000     4.06000000
   C    102.45000000    34.41000000     4.36000000
   C    101.33000000    35.41000000     4.20000000
   C    100.61000000    35.86000000     5.32000000
   C    101.06000000    35.94000000     2.93000000
   C     99.67000000    36.88000000     5.15000000
   C    100.18000000    37.01000000     2.79000000
   C     99.41000000    37.44000000     3.89000000
   O     98.39000000    38.34000000     3.76000000
   H    104.84000000    35.32000000     2.85000000
   H    103.89000000    35.46000000     5.65000000
   H    102.24000000    33.69000000     5.16000000
   H    102.56000000    33.88000000     3.42000000
   H    100.73000000    35.27000000     6.22000000
   H    101.59000000    35.57000000     2.06000000
   H     99.25000000    37.28000000     6.06000000
   H    100.08000000    37.41000000     1.79000000
   H     98.34000000    38.63000000     2.85000000
   N    104.80000000    33.24000000     6.16000000
   C    105.52000000    32.07000000     6.61000000
   C    104.49000000    30.99000000     6.90000000
   O    104.71000000    29.82000000     6.63000000
   C    106.41000000    32.42000000     7.79000000
   C    105.83000000    32.88000000     9.13000000
   C    107.32000000    31.24000000     8.11000000
   C    106.77000000    33.26000000    10.27000000
   H    104.06000000    33.60000000     6.75000000
   H    106.17000000    31.65000000     5.84000000
   H    107.08000000    33.23000000     7.50000000
   H    105.09000000    32.13000000     9.42000000
   H    105.28000000    33.80000000     8.94000000
   H    106.62000000    30.47000000     8.44000000
   H    107.88000000    30.88000000     7.25000000
   H    108.03000000    31.55000000     8.88000000
   H    106.17000000    33.81000000    11.00000000
   H    107.19000000    32.36000000    10.72000000
   H    107.61000000    33.81000000     9.87000000
   N    103.32000000    31.33000000     7.46000000
   C    102.19000000    30.45000000     7.71000000
   C    101.92000000    30.12000000     9.17000000
   O    101.43000000    29.03000000     9.47000000
   C    100.99000000    31.11000000     7.04000000
   O    101.17000000    31.24000000     5.65000000
   H    103.09000000    32.31000000     7.54000000
   H    102.23000000    29.50000000     7.19000000
   H    100.97000000    32.12000000     7.44000000
   H    100.05000000    30.60000000     7.28000000
   H    100.43000000    31.67000000     5.23000000
   N    102.36000000    31.02000000    10.05000000
   C    102.35000000    30.97000000    11.49000000
   C    101.09000000    31.47000000    12.19000000
   O    101.16000000    32.17000000    13.20000000
   C    103.61000000    31.67000000    12.00000000
   H    102.77000000    31.86000000     9.67000000
   H    102.52000000    29.92000000    11.72000000
   H    103.71000000    31.45000000    13.07000000
   H    104.55000000    31.33000000    11.58000000
   H    103.56000000    32.75000000    11.92000000
   N     99.91000000    31.10000000    11.67000000
   C     98.64000000    31.65000000    12.11000000
   C     98.63000000    33.16000000    11.89000000
   O     98.35000000    33.88000000    12.84000000
   C     98.26000000    31.10000000    13.48000000
   H     99.87000000    30.52000000    10.85000000
   H     97.85000000    31.26000000    11.47000000
   H     98.00000000    30.04000000    13.51000000
   H     99.13000000    31.14000000    14.14000000
   H     97.38000000    31.57000000    13.90000000
   N     98.87000000    33.64000000    10.67000000
   C     99.03000000    35.06000000    10.46000000
   C     97.88000000    35.85000000     9.85000000
   O     97.87000000    37.08000000     9.80000000
   C    100.21000000    35.24000000     9.52000000
   C    101.50000000    34.52000000     9.91000000
   C    102.48000000    34.86000000     8.81000000
   O    103.08000000    35.95000000     8.98000000
   O    102.75000000    34.05000000     7.90000000
   H     99.27000000    33.03000000     9.97000000
   H     99.32000000    35.59000000    11.37000000
   H    100.40000000    36.31000000     9.41000000
   H     99.92000000    35.03000000     8.49000000
   H    101.46000000    33.43000000     9.92000000
   H    101.83000000    34.75000000    10.92000000
   N     96.87000000    35.08000000     9.45000000
   C     95.54000000    35.61000000     9.20000000
   H     94.86300000    35.27800000     9.98700000
   H     95.57800000    36.69900000     9.19000000
   H     95.18000000    35.25000000     8.23600000
   H     96.95000000    34.07000000     9.49000000
  Ca    101.51700000    40.28000000     8.62000000
   O     99.10000000    39.07000000     8.44000000
   H     98.69000000    39.13000000     7.58000000
   H     98.56000000    38.44000000     8.93000000
   O    102.38700000    38.41000000    10.26000000
   H    102.65700000    38.27000000    11.17000000
   H    102.39700000    37.53000000     9.88000000
   O    100.61700000    42.76000000     8.03000000
   H    100.12700000    42.89000000     7.22000000
   H    100.96700000    43.62000000     8.24000000
   O    102.14700000    38.04000000     7.13000000
   H    102.43700000    37.29000000     7.64000000
   H    102.67700000    38.03000000     6.34000000
   O    100.06700000    40.43000000     6.34000000
   H     99.71700000    41.20000000     5.90000000
   H    100.08700000    39.76000000     5.66000000
   O    100.02700000    40.74000000    10.82000000
   H    100.50700000    40.91000000    11.63000000
   H     99.10700000    40.76000000    11.09000000

Ca 1.00



