%chk=loop3.holoCaM-CaMKII.run53.water2.chk
%nprocshared=20
%mem=10GB
%nosave
#b3lyp/svp scf=(tight,noincore,xqc) Test 
#IOP(5/87=12) Density=Current Pop=(MK,readradii) iop(6/33=2) iop(6/42=6)

loop3.holoCaM-CaMKII.run53.water2 

   0  1 
   C     35.95000000    59.30000000     8.95000000
   C     37.41000000    58.87000000     8.92000000
   O     38.00000000    58.85000000     7.84000000
   H     35.34800000    58.50800000     9.39500000
   H     35.85000000    60.20900000     9.54300000
   H     35.60600000    59.49000000     7.93300000
   N     38.05000000    58.64000000    10.07000000
   C     39.32000000    57.95000000    10.20000000
   C     39.23000000    56.44000000    10.02000000
   O     38.33000000    55.84000000    10.60000000
   C     39.96000000    58.32000000    11.54000000
   C     41.45000000    58.03000000    11.54000000
   O     41.96000000    57.24000000    10.72000000
   O     42.11000000    58.55000000    12.47000000
   H     37.53000000    58.82000000    10.91000000
   H     40.03000000    58.37000000     9.49000000
   H     39.50000000    57.72000000    12.32000000
   H     39.81000000    59.37000000    11.77000000
   N     40.02000000    55.80000000     9.16000000
   C     39.87000000    54.44000000     8.68000000
   C     40.67000000    53.46000000     9.52000000
   O     40.15000000    52.35000000     9.62000000
   C     40.46000000    54.42000000     7.27000000
   C     39.92000000    53.22000000     6.49000000
   C     40.60000000    53.21000000     5.12000000
   C     40.21000000    51.93000000     4.39000000
   N     41.00000000    51.73000000     3.17000000
   H     40.81000000    56.28000000     8.76000000
   H     38.84000000    54.08000000     8.59000000
   H     41.55000000    54.44000000     7.28000000
   H     40.11000000    55.29000000     6.71000000
   H     38.85000000    53.34000000     6.38000000
   H     40.13000000    52.33000000     7.08000000
   H     41.67000000    53.11000000     5.28000000
   H     40.30000000    54.02000000     4.45000000
   H     39.13000000    52.00000000     4.29000000
   H     40.38000000    51.08000000     5.06000000
   H     41.96000000    51.44000000     3.28000000
   H     40.67000000    50.95000000     2.63000000
   H     41.04000000    52.60000000     2.65000000
   N     41.87000000    53.80000000    10.01000000
   C     42.54000000    52.98000000    11.00000000
   C     42.55000000    53.60000000    12.39000000
   O     43.07000000    52.98000000    13.31000000
   C     43.99000000    52.67000000    10.64000000
   C     44.86000000    53.87000000    10.33000000
   O     44.55000000    55.02000000    10.70000000
   O     45.94000000    53.60000000     9.76000000
   H     42.44000000    54.52000000     9.59000000
   H     42.00000000    52.05000000    11.18000000
   H     44.05000000    51.91000000     9.86000000
   H     44.38000000    52.16000000    11.53000000
   N     41.89000000    54.75000000    12.55000000
   C     41.44000000    55.20000000    13.85000000
   C     42.56000000    55.78000000    14.70000000
   O     42.39000000    55.96000000    15.90000000
   H     41.51000000    55.23000000    11.74000000
   H     41.03000000    54.39000000    14.46000000
   H     40.65000000    55.94000000    13.73000000
   N     43.75000000    56.09000000    14.17000000
   C     44.83000000    56.58000000    14.99000000
   C     44.60000000    57.97000000    15.56000000
   O     45.30000000    58.35000000    16.50000000
   C     46.17000000    56.38000000    14.28000000
   C     46.34000000    57.38000000    13.14000000
   N     47.52000000    57.98000000    12.99000000
   O     45.42000000    57.57000000    12.35000000
   H     43.84000000    56.07000000    13.16000000
   H     44.79000000    55.88000000    15.82000000
   H     46.29000000    55.37000000    13.90000000
   H     46.94000000    56.52000000    15.04000000
   H     48.28000000    57.85000000    13.64000000
   H     47.62000000    58.57000000    12.17000000
   N     43.66000000    58.74000000    15.00000000
   C     43.29000000    60.06000000    15.47000000
   C     43.50000000    61.13000000    14.41000000
   O     43.55000000    62.32000000    14.73000000
   H     43.20000000    58.36000000    14.19000000
   H     43.76000000    60.30000000    16.43000000
   H     42.21000000    60.02000000    15.58000000
   N     43.65000000    60.78000000    13.13000000
   C     44.06000000    61.72000000    12.10000000
   C     43.66000000    61.28000000    10.70000000
   O     43.97000000    60.16000000    10.30000000
   C     45.58000000    61.84000000    12.14000000
   C     46.31000000    62.36000000    13.36000000
   C     46.16000000    63.71000000    13.71000000
   C     47.04000000    61.53000000    14.21000000
   C     46.80000000    64.19000000    14.86000000
   C     47.65000000    61.97000000    15.39000000
   C     47.50000000    63.33000000    15.73000000
   O     48.00000000    63.77000000    16.92000000
   H     43.27000000    59.86000000    12.95000000
   H     43.67000000    62.72000000    12.28000000
   H     45.87000000    62.55000000    11.37000000
   H     46.09000000    60.88000000    12.01000000
   H     45.50000000    64.35000000    13.15000000
   H     47.22000000    60.47000000    14.10000000
   H     46.80000000    65.25000000    15.08000000
   H     48.19000000    61.25000000    15.99000000
   H     47.96000000    64.72000000    17.06000000
   N     42.86000000    62.08000000     9.98000000
   C     42.34000000    61.71000000     8.68000000
   C     43.30000000    62.18000000     7.60000000
   O     43.74000000    63.32000000     7.70000000
   C     40.93000000    62.27000000     8.48000000
   C     39.82000000    62.07000000     9.50000000
   C     40.34000000    62.04000000     7.09000000
   C     38.68000000    63.08000000     9.58000000
   H     42.54000000    63.00000000    10.24000000
   H     42.23000000    60.63000000     8.63000000
   H     41.15000000    63.33000000     8.48000000
   H     40.21000000    62.12000000    10.52000000
   H     39.36000000    61.10000000     9.30000000
   H     39.49000000    62.71000000     6.94000000
   H     41.02000000    62.15000000     6.24000000
   H     39.86000000    61.08000000     6.89000000
   H     38.95000000    64.14000000     9.64000000
   H     38.17000000    62.99000000     8.62000000
   H     37.97000000    62.80000000    10.35000000
   N     43.55000000    61.25000000     6.67000000
   C     44.27000000    61.31000000     5.42000000
   C     43.39000000    61.57000000     4.20000000
   O     42.21000000    61.25000000     4.21000000
   C     45.23000000    60.13000000     5.27000000
   O     45.82000000    59.67000000     6.46000000
   H     43.09000000    60.37000000     6.88000000
   H     44.91000000    62.18000000     5.54000000
   H     46.01000000    60.40000000     4.57000000
   H     44.73000000    59.27000000     4.81000000
   H     45.26000000    59.07000000     6.97000000
   N     43.92000000    62.11000000     3.10000000
   C     43.17000000    62.30000000     1.87000000
   C     42.51000000    61.03000000     1.36000000
   O     41.31000000    61.10000000     1.07000000
   C     44.21000000    62.81000000     0.88000000
   H     44.86000000    62.47000000     3.01000000
   H     42.36000000    63.00000000     2.07000000
   H     45.13000000    62.23000000     0.82000000
   H     43.76000000    62.98000000    -0.10000000
   H     44.48000000    63.81000000     1.20000000
   N     43.16000000    59.87000000     1.26000000
   C     42.60000000    58.57000000     0.94000000
   C     41.61000000    58.07000000     1.98000000
   O     40.61000000    57.47000000     1.60000000
   C     43.68000000    57.51000000     0.76000000
   H     44.16000000    59.86000000     1.46000000
   H     42.10000000    58.71000000    -0.01000000
   H     44.48000000    57.91000000     0.14000000
   H     44.10000000    57.17000000     1.71000000
   H     43.20000000    56.68000000     0.24000000
   N     41.71000000    58.29000000     3.29000000
   C     40.62000000    58.05000000     4.22000000
   C     39.43000000    58.98000000     4.09000000
   O     38.29000000    58.52000000     4.09000000
   C     41.14000000    57.98000000     5.66000000
   C     42.49000000    57.28000000     5.79000000
   C     43.04000000    57.32000000     7.21000000
   O     43.73000000    58.28000000     7.61000000
   O     42.98000000    56.31000000     7.95000000
   H     42.47000000    58.86000000     3.60000000
   H     40.26000000    57.04000000     4.04000000
   H     40.36000000    57.52000000     6.27000000
   H     41.16000000    59.04000000     5.91000000
   H     43.25000000    57.77000000     5.18000000
   H     42.45000000    56.22000000     5.54000000
   N     39.60000000    60.21000000     3.59000000
   C     38.54000000    61.12000000     3.20000000
   H     37.68200000    60.98100000     3.85800000
   H     38.89500000    62.14700000     3.27800000
   H     38.24400000    60.91500000     2.17100000
   H     40.55000000    60.51000000     3.42000000
  Ca     44.47000000    57.46000000     9.92000000
   O     46.56000000    59.02000000     9.38000000
   H     46.61000000    59.97000000     9.39000000
   H     47.37000000    58.73000000     9.81000000
   O     46.62000000    56.23000000     9.05000000
   H     47.54000000    56.35000000     9.25000000
   H     46.44000000    55.32000000     9.29000000

Ca 1.00



