%chk=loop4.apoCaM-CA-Ng.Init293.run74.water3.chk
%nprocshared=20
%mem=10GB
%nosave
#b3lyp/svp scf=(tight,noincore,xqc) Test 
#IOP(5/87=12) Density=Current Pop=(MK,readradii) iop(6/33=2) iop(6/42=6)

loop4.apoCaM-CA-Ng.Init293.run74.water3 

   -3  1 
   C     63.19000000    83.83000000    57.31000000
   C     61.79000000    83.37000000    57.71000000
   O     60.91000000    84.21000000    57.83000000
   H     63.89700000    83.01400000    57.45900000
   H     63.19100000    84.12300000    56.26000000
   H     63.48300000    84.68100000    57.92500000
   N     61.68000000    82.08000000    58.02000000
   C     60.50000000    81.41000000    58.54000000
   C     59.13000000    81.57000000    57.91000000
   O     58.16000000    80.95000000    58.33000000
   C     60.45000000    81.63000000    60.05000000
   C     60.00000000    82.98000000    60.58000000
   O     59.13000000    83.68000000    60.02000000
   O     60.53000000    83.49000000    61.60000000
   H     62.56000000    81.59000000    58.03000000
   H     60.73000000    80.34000000    58.47000000
   H     61.44000000    81.41000000    60.47000000
   H     59.72000000    80.96000000    60.51000000
   N     59.01000000    82.31000000    56.80000000
   C     57.76000000    82.62000000    56.13000000
   C     56.98000000    83.60000000    57.00000000
   O     57.53000000    84.43000000    57.73000000
   C     57.96000000    83.05000000    54.68000000
   C     58.42000000    81.76000000    54.01000000
   C     58.97000000    84.17000000    54.48000000
   C     58.48000000    81.90000000    52.49000000
   H     59.79000000    82.91000000    56.57000000
   H     57.08000000    81.77000000    56.11000000
   H     56.98000000    83.34000000    54.29000000
   H     57.86000000    80.89000000    54.36000000
   H     59.42000000    81.49000000    54.37000000
   H     58.84000000    84.52000000    53.46000000
   H     58.60000000    84.99000000    55.11000000
   H     59.99000000    83.89000000    54.74000000
   H     59.17000000    81.23000000    51.99000000
   H     57.48000000    81.92000000    52.06000000
   H     58.98000000    82.83000000    52.25000000
   N     55.65000000    83.56000000    56.97000000
   C     54.76000000    84.43000000    57.72000000
   C     54.90000000    84.03000000    59.18000000
   O     55.11000000    82.88000000    59.54000000
   C     53.37000000    84.29000000    57.11000000
   C     52.75000000    82.92000000    57.32000000
   O     53.00000000    82.05000000    56.46000000
   O     52.26000000    82.63000000    58.44000000
   H     55.20000000    82.92000000    56.34000000
   H     55.10000000    85.45000000    57.53000000
   H     53.44000000    84.51000000    56.04000000
   H     52.65000000    85.00000000    57.52000000
   N     54.78000000    84.96000000    60.14000000
   C     54.41000000    86.35000000    60.01000000
   C     55.42000000    87.22000000    59.28000000
   O     56.52000000    86.81000000    58.93000000
   H     54.90000000    84.61000000    61.08000000
   H     54.35000000    86.83000000    60.99000000
   H     53.40000000    86.42000000    59.61000000
   N     55.09000000    88.46000000    58.91000000
   C     53.73000000    88.95000000    58.78000000
   C     53.73000000    89.95000000    57.63000000
   O     53.70000000    91.17000000    57.71000000
   C     53.26000000    89.64000000    60.06000000
   C     51.85000000    90.22000000    59.92000000
   O     50.91000000    89.50000000    59.51000000
   O     51.77000000    91.44000000    60.17000000
   H     55.82000000    89.10000000    58.63000000
   H     53.05000000    88.13000000    58.59000000
   H     53.85000000    90.54000000    60.20000000
   H     53.26000000    88.90000000    60.86000000
   N     53.65000000    89.52000000    56.37000000
   C     53.57000000    88.15000000    55.91000000
   C     53.17000000    87.81000000    54.48000000
   O     52.34000000    86.95000000    54.21000000
   H     53.50000000    90.25000000    55.68000000
   H     52.80000000    87.80000000    56.60000000
   H     54.49000000    87.61000000    56.17000000
   N     53.76000000    88.49000000    53.49000000
   C     53.47000000    88.44000000    52.07000000
   C     54.37000000    87.55000000    51.23000000
   O     54.14000000    87.41000000    50.03000000
   C     53.54000000    89.85000000    51.51000000
   C     52.46000000    90.76000000    52.08000000
   C     51.01000000    90.35000000    51.87000000
   N     50.62000000    90.15000000    50.61000000
   O     50.31000000    90.09000000    52.85000000
   H     54.46000000    89.15000000    53.79000000
   H     52.45000000    88.08000000    51.96000000
   H     53.59000000    89.79000000    50.42000000
   H     54.49000000    90.28000000    51.84000000
   H     52.57000000    91.75000000    51.64000000
   H     52.69000000    91.02000000    53.12000000
   H     51.37000000    90.19000000    49.94000000
   H     49.76000000    89.68000000    50.36000000
   N     55.52000000    87.10000000    51.75000000
   C     56.50000000    86.34000000    51.00000000
   C     57.88000000    86.87000000    51.35000000
   O     58.19000000    86.93000000    52.54000000
   C     56.43000000    84.84000000    51.25000000
   C     57.01000000    84.08000000    50.05000000
   C     55.03000000    84.26000000    51.45000000
   H     55.56000000    87.17000000    52.75000000
   H     56.42000000    86.53000000    49.93000000
   H     57.04000000    84.54000000    52.10000000
   H     56.88000000    83.01000000    50.21000000
   H     56.51000000    84.46000000    49.16000000
   H     58.05000000    84.36000000    49.91000000
   H     54.60000000    84.80000000    52.29000000
   H     54.47000000    84.53000000    50.55000000
   H     55.06000000    83.18000000    51.58000000
   N     58.66000000    87.23000000    50.32000000
   C     59.97000000    87.78000000    50.60000000
   C     59.94000000    89.29000000    50.79000000
   O     60.95000000    89.88000000    51.16000000
   C     60.88000000    87.41000000    49.43000000
   C     62.31000000    87.88000000    49.63000000
   N     62.86000000    88.33000000    48.50000000
   O     63.00000000    87.75000000    50.64000000
   H     58.24000000    87.17000000    49.41000000
   H     60.42000000    87.25000000    51.44000000
   H     60.45000000    87.81000000    48.51000000
   H     60.83000000    86.33000000    49.29000000
   H     62.32000000    88.34000000    47.65000000
   H     63.83000000    88.62000000    48.48000000
   N     58.83000000    89.94000000    50.42000000
   C     58.63000000    91.32000000    50.83000000
   C     58.51000000    91.48000000    52.34000000
   O     57.83000000    90.66000000    52.96000000
   C     57.35000000    91.78000000    50.13000000
   C     57.09000000    93.26000000    50.24000000
   C     58.05000000    94.17000000    49.78000000
   C     55.90000000    93.73000000    50.80000000
   C     57.76000000    95.54000000    49.74000000
   C     55.62000000    95.10000000    50.83000000
   C     56.54000000    96.01000000    50.26000000
   O     56.35000000    97.36000000    50.25000000
   H     58.05000000    89.35000000    50.21000000
   H     59.46000000    91.93000000    50.47000000
   H     56.53000000    91.10000000    50.36000000
   H     57.47000000    91.73000000    49.05000000
   H     58.99000000    93.80000000    49.40000000
   H     55.27000000    92.95000000    51.20000000
   H     58.42000000    96.22000000    49.23000000
   H     54.69000000    95.46000000    51.24000000
   H     57.05000000    97.78000000    49.75000000
   N     59.19000000    92.47000000    52.91000000
   C     59.36000000    92.76000000    54.31000000
   C     60.09000000    91.66000000    55.07000000
   O     60.23000000    91.79000000    56.28000000
   C     58.08000000    93.28000000    54.97000000
   C     57.68000000    94.71000000    54.61000000
   C     56.47000000    95.10000000    55.45000000
   O     55.35000000    95.05000000    54.89000000
   O     56.66000000    95.50000000    56.62000000
   H     59.76000000    93.02000000    52.28000000
   H     60.06000000    93.61000000    54.34000000
   H     58.22000000    93.32000000    56.05000000
   H     57.27000000    92.58000000    54.75000000
   H     57.39000000    94.76000000    53.57000000
   H     58.49000000    95.39000000    54.87000000
   N     60.59000000    90.61000000    54.41000000
   C     61.59000000    89.73000000    54.99000000
   C     62.97000000    90.22000000    54.58000000
   O     63.98000000    89.78000000    55.13000000
   C     61.44000000    88.28000000    54.53000000
   C     60.05000000    87.73000000    54.79000000
   C     59.80000000    87.49000000    56.28000000
   O     60.72000000    87.37000000    57.12000000
   O     58.64000000    87.34000000    56.70000000
   H     60.38000000    90.47000000    53.44000000
   H     61.62000000    89.75000000    56.08000000
   H     62.19000000    87.65000000    55.01000000
   H     61.57000000    88.26000000    53.45000000
   H     60.06000000    86.71000000    54.39000000
   H     59.31000000    88.44000000    54.41000000
   N     63.09000000    91.04000000    53.53000000
   C     64.30000000    91.64000000    53.00000000
   H     65.11400000    90.91700000    53.04700000
   H     64.13600000    91.93500000    51.96300000
   H     64.56000000    92.51800000    53.59100000
   H     62.25000000    91.25000000    53.02000000
  Ca     59.16000000    86.03000000    58.96000000
   O     61.62000000    86.16000000    59.99000000
   H     62.37000000    85.72000000    59.58000000
   H     62.01000000    86.75000000    60.63000000
   O     59.87000000    88.43000000    60.07000000
   H     60.09000000    88.65000000    60.98000000
   H     59.55000000    89.26000000    59.70000000
   O     58.33000000    86.51000000    61.69000000
   H     58.91000000    86.28000000    62.42000000
   H     57.55000000    86.86000000    62.12000000

Ca 1.00



