%chk=loop1.holoCaM.run69.water2.chk
%nprocshared=20
%mem=10GB
%nosave
#b3lyp/svp scf=(tight,noincore,xqc) Test 
#IOP(5/87=12) Density=Current Pop=(MK,readradii) iop(6/33=2) iop(6/42=6)

loop1.holoCaM.run69.water2 

   0  1 
   C     46.13000000    69.11000000    -5.30000000
   C     45.22000000    67.91000000    -5.50000000
   O     45.53000000    67.12000000    -6.38000000
   H     47.05300000    68.96300000    -5.86100000
   H     45.62900000    70.01000000    -5.65500000
   H     46.36300000    69.21700000    -4.24100000
   N     44.14000000    67.75000000    -4.74000000
   C     42.95000000    67.02000000    -5.16000000
   C     41.97000000    67.96000000    -5.85000000
   O     41.59000000    68.91000000    -5.18000000
   C     42.28000000    66.53000000    -3.89000000
   C     40.91000000    65.92000000    -4.14000000
   O     40.17000000    65.80000000    -3.13000000
   O     40.65000000    65.49000000    -5.28000000
   H     44.10000000    68.50000000    -4.07000000
   H     43.18000000    66.17000000    -5.80000000
   H     42.18000000    67.33000000    -3.17000000
   H     42.90000000    65.79000000    -3.39000000
   N     41.60000000    67.70000000    -7.11000000
   C     40.81000000    68.59000000    -7.93000000
   C     39.29000000    68.45000000    -7.90000000
   O     38.64000000    69.47000000    -8.08000000
   C     41.34000000    68.35000000    -9.34000000
   C     40.57000000    69.13000000   -10.41000000
   C     41.33000000    68.89000000   -11.71000000
   C     40.53000000    69.33000000   -12.94000000
   N     40.35000000    70.79000000   -13.02000000
   H     41.92000000    66.85000000    -7.55000000
   H     40.96000000    69.63000000    -7.64000000
   H     41.25000000    67.30000000    -9.62000000
   H     42.39000000    68.64000000    -9.33000000
   H     40.53000000    70.19000000   -10.18000000
   H     39.59000000    68.65000000   -10.44000000
   H     41.43000000    67.81000000   -11.82000000
   H     42.35000000    69.25000000   -11.74000000
   H     39.58000000    68.80000000   -12.98000000
   H     41.10000000    68.95000000   -13.78000000
   H     39.95000000    70.97000000   -13.93000000
   H     39.77000000    71.21000000   -12.31000000
   H     41.20000000    71.32000000   -12.88000000
   N     38.77000000    67.23000000    -7.72000000
   C     37.37000000    66.85000000    -7.67000000
   C     36.91000000    66.58000000    -6.24000000
   O     35.74000000    66.27000000    -6.03000000
   C     37.07000000    65.69000000    -8.61000000
   C     37.95000000    64.48000000    -8.37000000
   O     37.83000000    63.49000000    -9.13000000
   O     38.75000000    64.43000000    -7.41000000
   H     39.43000000    66.51000000    -7.46000000
   H     36.80000000    67.71000000    -8.04000000
   H     37.28000000    66.00000000    -9.64000000
   H     36.03000000    65.38000000    -8.52000000
   N     37.79000000    66.74000000    -5.25000000
   C     37.33000000    66.91000000    -3.88000000
   C     36.77000000    65.67000000    -3.21000000
   O     35.77000000    65.81000000    -2.51000000
   H     38.76000000    66.88000000    -5.48000000
   H     36.59000000    67.72000000    -3.91000000
   H     38.05000000    67.25000000    -3.15000000
   N     37.27000000    64.45000000    -3.44000000
   C     37.03000000    63.22000000    -2.73000000
   C     37.92000000    63.14000000    -1.49000000
   O     37.74000000    62.31000000    -0.60000000
   C     37.26000000    62.05000000    -3.69000000
   C     38.53000000    62.18000000    -4.52000000
   O     39.55000000    62.61000000    -3.95000000
   O     38.53000000    61.87000000    -5.73000000
   H     38.19000000    64.51000000    -3.85000000
   H     36.01000000    63.12000000    -2.37000000
   H     36.43000000    62.07000000    -4.39000000
   H     37.28000000    61.10000000    -3.16000000
   N     38.91000000    64.03000000    -1.36000000
   C     39.85000000    63.91000000    -0.27000000
   C     41.13000000    63.14000000    -0.53000000
   O     41.87000000    62.75000000     0.38000000
   H     39.09000000    64.54000000    -2.21000000
   H     39.26000000    63.62000000     0.60000000
   H     40.23000000    64.92000000    -0.10000000
   N     41.35000000    62.64000000    -1.75000000
   C     42.29000000    61.67000000    -2.25000000
   C     43.01000000    62.12000000    -3.52000000
   O     42.49000000    62.98000000    -4.23000000
   C     41.70000000    60.27000000    -2.38000000
   C     41.15000000    59.57000000    -1.14000000
   O     40.63000000    60.28000000    -3.31000000
   H     40.70000000    62.93000000    -2.47000000
   H     43.00000000    61.55000000    -1.43000000
   H     42.51000000    59.65000000    -2.76000000
   H     40.22000000    61.15000000    -3.25000000
   H     40.15000000    59.96000000    -0.95000000
   H     41.16000000    58.54000000    -1.49000000
   H     41.86000000    59.80000000    -0.35000000
   N     44.14000000    61.48000000    -3.83000000
   C     44.98000000    61.66000000    -5.00000000
   C     45.07000000    60.41000000    -5.87000000
   O     45.26000000    59.32000000    -5.33000000
   C     46.25000000    62.40000000    -4.58000000
   C     45.92000000    63.88000000    -4.43000000
   C     47.42000000    62.19000000    -5.53000000
   C     47.15000000    64.74000000    -4.11000000
   H     44.42000000    60.78000000    -3.16000000
   H     44.42000000    62.27000000    -5.70000000
   H     46.64000000    62.02000000    -3.63000000
   H     45.31000000    64.07000000    -3.54000000
   H     45.38000000    64.32000000    -5.26000000
   H     48.34000000    62.62000000    -5.14000000
   H     47.65000000    61.16000000    -5.79000000
   H     47.22000000    62.66000000    -6.50000000
   H     46.70000000    65.60000000    -3.61000000
   H     47.66000000    64.14000000    -3.36000000
   H     47.76000000    64.89000000    -5.00000000
   N     44.91000000    60.55000000    -7.19000000
   C     45.16000000    59.61000000    -8.26000000
   C     46.32000000    59.97000000    -9.17000000
   O     46.83000000    61.08000000    -9.20000000
   C     43.85000000    59.49000000    -9.03000000
   C     43.35000000    60.69000000    -9.83000000
   O     43.76000000    58.40000000    -9.92000000
   H     44.59000000    61.45000000    -7.50000000
   H     45.36000000    58.63000000    -7.81000000
   H     43.10000000    59.27000000    -8.28000000
   H     43.88000000    57.59000000    -9.41000000
   H     43.11000000    61.51000000    -9.14000000
   H     44.11000000    61.04000000   -10.53000000
   H     42.41000000    60.44000000   -10.32000000
   N     46.73000000    59.12000000   -10.12000000
   C     47.95000000    59.17000000   -10.90000000
   C     48.11000000    60.41000000   -11.77000000
   O     49.20000000    60.95000000   -11.87000000
   C     48.01000000    57.91000000   -11.75000000
   C     48.74000000    56.79000000   -11.02000000
   O     46.72000000    57.44000000   -12.09000000
   H     46.24000000    58.24000000   -10.17000000
   H     48.80000000    58.99000000   -10.23000000
   H     48.52000000    58.06000000   -12.71000000
   H     46.84000000    56.56000000   -12.45000000
   H     48.31000000    56.59000000   -10.04000000
   H     48.76000000    55.91000000   -11.66000000
   H     49.76000000    57.16000000   -10.90000000
   N     47.01000000    60.95000000   -12.30000000
   C     46.92000000    62.18000000   -13.06000000
   C     46.74000000    63.44000000   -12.22000000
   O     47.04000000    64.54000000   -12.68000000
   C     45.70000000    62.06000000   -13.97000000
   C     46.06000000    61.55000000   -15.36000000
   C     44.79000000    61.22000000   -16.13000000
   C     45.02000000    60.70000000   -17.55000000
   N     45.50000000    59.32000000   -17.60000000
   H     46.20000000    60.38000000   -12.12000000
   H     47.79000000    62.39000000   -13.68000000
   H     45.23000000    63.04000000   -14.08000000
   H     44.92000000    61.44000000   -13.52000000
   H     46.65000000    60.66000000   -15.15000000
   H     46.66000000    62.33000000   -15.84000000
   H     44.12000000    62.08000000   -16.12000000
   H     44.23000000    60.49000000   -15.55000000
   H     45.73000000    61.35000000   -18.06000000
   H     44.12000000    60.67000000   -18.17000000
   H     45.66000000    58.97000000   -18.53000000
   H     46.33000000    59.17000000   -17.04000000
   H     44.90000000    58.64000000   -17.14000000
   N     46.24000000    63.32000000   -10.99000000
   C     46.36000000    64.47000000   -10.12000000
   C     47.81000000    64.64000000    -9.68000000
   O     48.38000000    65.72000000    -9.77000000
   C     45.39000000    64.38000000    -8.94000000
   C     43.95000000    64.61000000    -9.38000000
   C     42.94000000    64.32000000    -8.28000000
   O     43.01000000    63.33000000    -7.52000000
   O     41.91000000    65.02000000    -8.13000000
   H     46.22000000    62.40000000   -10.59000000
   H     46.14000000    65.38000000   -10.67000000
   H     45.72000000    65.10000000    -8.20000000
   H     45.47000000    63.41000000    -8.44000000
   H     43.68000000    64.05000000   -10.28000000
   H     43.84000000    65.66000000    -9.67000000
   N     48.41000000    63.49000000    -9.35000000
   C     49.77000000    63.39000000    -8.86000000
   H     50.38900000    64.14100000    -9.35100000
   H     49.78200000    63.55800000    -7.78300000
   H     50.16300000    62.39700000    -9.07800000
   H     47.88000000    62.63000000    -9.40000000
  Ca     40.75000000    63.26000000    -6.32500000
   O     41.50000000    60.71000000    -5.99500000
   H     40.94000000    60.18000000    -6.55500000
   H     41.68000000    60.15000000    -5.23500000
   O     40.20000000    61.76000000    -8.56500000
   H     40.28000000    60.92000000    -9.02500000
   H     39.32000000    62.08000000    -8.80500000

Ca 1.00



