%chk=loop3.apoCaM-CA-Ng.Init295.run40.water3.chk
%nprocshared=20
%mem=10GB
%nosave
#b3lyp/svp scf=(tight,noincore,xqc) Test 
#IOP(5/87=12) Density=Current Pop=(MK,readradii) iop(6/33=2) iop(6/42=6)

loop3.apoCaM-CA-Ng.Init295.run40.water3 

   0  1 
   C    101.05000000    27.70000000    56.12000000
   C    101.24000000    26.31000000    56.70000000
   O    100.34000000    25.77000000    57.35000000
   H    100.21400000    28.19000000    56.61900000
   H    101.95700000    28.28500000    56.27200000
   H    100.84100000    27.62400000    55.05300000
   N    102.39000000    25.66000000    56.49000000
   C    102.72000000    24.35000000    57.01000000
   C    104.22000000    24.21000000    57.26000000
   O    104.98000000    24.88000000    56.57000000
   C    102.24000000    23.38000000    55.94000000
   C    102.39000000    21.93000000    56.37000000
   O    101.37000000    21.33000000    56.78000000
   O    103.48000000    21.37000000    56.10000000
   H    103.11000000    26.16000000    55.98000000
   H    102.16000000    24.12000000    57.92000000
   H    102.69000000    23.59000000    54.97000000
   H    101.17000000    23.53000000    55.83000000
   N    104.71000000    23.33000000    58.13000000
   C    106.12000000    23.27000000    58.47000000
   C    106.93000000    22.57000000    57.39000000
   O    108.09000000    22.95000000    57.21000000
   C    106.31000000    22.51000000    59.78000000
   C    107.56000000    22.89000000    60.57000000
   C    107.76000000    21.97000000    61.76000000
   C    109.15000000    22.26000000    62.33000000
   N    109.25000000    23.62000000    62.89000000
   H    104.06000000    22.79000000    58.67000000
   H    106.50000000    24.28000000    58.59000000
   H    106.48000000    21.46000000    59.54000000
   H    105.43000000    22.61000000    60.42000000
   H    107.48000000    23.93000000    60.87000000
   H    108.47000000    22.80000000    59.98000000
   H    107.67000000    20.93000000    61.43000000
   H    106.88000000    22.10000000    62.39000000
   H    109.79000000    22.07000000    61.48000000
   H    109.43000000    21.55000000    63.11000000
   H    108.39000000    23.76000000    63.39000000
   H    110.01000000    23.82000000    63.53000000
   H    109.17000000    24.34000000    62.19000000
   N    106.36000000    21.62000000    56.64000000
   C    107.06000000    20.95000000    55.56000000
   C    106.66000000    21.47000000    54.19000000
   O    107.46000000    21.35000000    53.26000000
   C    106.86000000    19.44000000    55.59000000
   C    105.40000000    19.14000000    55.89000000
   O    104.59000000    19.03000000    54.95000000
   O    104.98000000    18.86000000    57.04000000
   H    105.39000000    21.39000000    56.82000000
   H    108.12000000    21.16000000    55.65000000
   H    107.58000000    19.01000000    56.29000000
   H    107.07000000    19.08000000    54.58000000
   N    105.44000000    22.00000000    54.06000000
   C    104.92000000    22.60000000    52.85000000
   C    103.74000000    21.98000000    52.13000000
   O    103.07000000    22.63000000    51.32000000
   H    104.76000000    21.92000000    54.79000000
   H    105.78000000    22.68000000    52.18000000
   H    104.84000000    23.67000000    53.05000000
   N    103.40000000    20.73000000    52.46000000
   C    102.20000000    20.04000000    52.02000000
   C    101.16000000    20.02000000    53.14000000
   O    101.47000000    19.84000000    54.31000000
   C    102.47000000    18.59000000    51.63000000
   C    103.38000000    18.45000000    50.42000000
   N    104.14000000    17.35000000    50.47000000
   O    103.54000000    19.29000000    49.54000000
   H    103.87000000    20.36000000    53.27000000
   H    101.81000000    20.64000000    51.20000000
   H    101.49000000    18.19000000    51.37000000
   H    102.96000000    18.02000000    52.42000000
   H    104.01000000    16.66000000    51.19000000
   H    104.85000000    17.29000000    49.76000000
   N     99.90000000    20.20000000    52.75000000
   C     98.81000000    20.43000000    53.67000000
   C     98.47000000    19.30000000    54.63000000
   O     98.06000000    19.64000000    55.74000000
   H     99.70000000    20.27000000    51.76000000
   H     97.91000000    20.62000000    53.09000000
   H     99.07000000    21.33000000    54.23000000
   N     98.73000000    18.02000000    54.34000000
   C     98.52000000    16.89000000    55.22000000
   C     99.04000000    17.04000000    56.65000000
   O    100.12000000    17.60000000    56.79000000
   C     99.22000000    15.69000000    54.59000000
   C     98.83000000    15.31000000    53.18000000
   C     99.70000000    15.63000000    52.14000000
   C     97.59000000    14.74000000    52.88000000
   C     99.19000000    15.53000000    50.84000000
   C     97.07000000    14.60000000    51.59000000
   C     97.92000000    14.99000000    50.54000000
   O     97.53000000    14.77000000    49.25000000
   H     98.94000000    17.80000000    53.38000000
   H     97.45000000    16.71000000    55.33000000
   H     99.03000000    14.85000000    55.26000000
   H    100.30000000    15.86000000    54.56000000
   H    100.69000000    16.03000000    52.30000000
   H     96.95000000    14.47000000    53.71000000
   H     99.73000000    15.87000000    49.97000000
   H     96.09000000    14.17000000    51.46000000
   H     96.63000000    14.43000000    49.23000000
   N     98.18000000    16.67000000    57.61000000
   C     98.40000000    16.58000000    59.04000000
   C     99.52000000    15.61000000    59.39000000
   O    100.23000000    15.14000000    58.51000000
   C     98.43000000    17.90000000    59.80000000
   C     97.13000000    18.65000000    59.51000000
   C     99.72000000    18.67000000    59.56000000
   C     96.92000000    19.95000000    60.28000000
   H     97.22000000    16.51000000    57.33000000
   H     97.50000000    16.14000000    59.47000000
   H     98.42000000    17.63000000    60.86000000
   H     96.29000000    18.03000000    59.84000000
   H     96.96000000    18.97000000    58.49000000
   H     99.92000000    19.25000000    60.46000000
   H    100.59000000    18.09000000    59.26000000
   H     99.42000000    19.40000000    58.80000000
   H     97.78000000    20.58000000    60.08000000
   H     95.99000000    20.33000000    59.85000000
   H     96.80000000    19.63000000    61.31000000
   N     99.55000000    15.21000000    60.66000000
   C    100.54000000    14.41000000    61.36000000
   C     99.82000000    13.36000000    62.19000000
   O    100.35000000    12.28000000    62.46000000
   C    101.40000000    15.32000000    62.23000000
   O    100.62000000    16.25000000    62.93000000
   H     98.83000000    15.57000000    61.27000000
   H    101.21000000    13.97000000    60.61000000
   H    102.16000000    15.80000000    61.61000000
   H    101.87000000    14.59000000    62.89000000
   H    101.20000000    16.79000000    63.48000000
   N     98.66000000    13.71000000    62.74000000
   C     97.94000000    12.97000000    63.76000000
   C     98.79000000    12.21000000    64.76000000
   O     98.57000000    11.02000000    64.98000000
   C     96.79000000    12.14000000    63.19000000
   H     98.29000000    14.64000000    62.57000000
   H     97.45000000    13.71000000    64.39000000
   H     96.14000000    11.79000000    63.99000000
   H     96.12000000    12.68000000    62.52000000
   H     97.24000000    11.26000000    62.74000000
   N     99.67000000    12.86000000    65.52000000
   C     99.69000000    14.29000000    65.78000000
   C     98.91000000    14.65000000    67.03000000
   O     99.07000000    14.12000000    68.13000000
   C    101.16000000    14.66000000    65.94000000
   H    100.28000000    12.29000000    66.09000000
   H     99.24000000    14.83000000    64.95000000
   H    101.79000000    14.32000000    65.12000000
   H    101.15000000    15.75000000    65.93000000
   H    101.51000000    14.29000000    66.90000000
   N     98.13000000    15.74000000    67.02000000
   C     97.93000000    16.71000000    65.96000000
   C     96.49000000    16.72000000    65.48000000
   O     96.32000000    16.78000000    64.26000000
   C     98.34000000    18.07000000    66.51000000
   C     98.07000000    19.18000000    65.50000000
   C     99.16000000    20.23000000    65.60000000
   O    100.16000000    20.00000000    64.88000000
   O     99.17000000    21.11000000    66.48000000
   H     97.75000000    15.91000000    67.94000000
   H     98.53000000    16.60000000    65.06000000
   H     99.41000000    18.01000000    66.74000000
   H     97.66000000    18.30000000    67.33000000
   H     97.18000000    19.75000000    65.74000000
   H     97.96000000    18.77000000    64.49000000
   N     95.52000000    16.73000000    66.40000000
   C     94.10000000    16.80000000    66.11000000
   H     93.59400000    17.34700000    66.90600000
   H     93.94700000    17.31500000    65.16200000
   H     93.69100000    15.79100000    66.04600000
   H     95.77000000    16.59000000    67.37000000
  Ca    102.50000000    18.91000000    56.49000000
   O    102.61000000    16.42000000    57.91000000
   H    103.05000000    16.05000000    58.68000000
   H    101.81000000    15.91000000    57.82000000
   O    102.55000000    16.89000000    54.84000000
   H    102.70000000    16.07000000    55.30000000
   H    102.88000000    16.74000000    53.95000000
   O    102.72000000    19.76000000    59.10000000
   H    102.62000000    19.37000000    59.97000000
   H    102.74000000    20.71000000    59.26000000

Ca 1.00



