%chk=loop3.apoCaM-CA-Ng.Init293.run16.water5.chk
%nprocshared=20
%mem=10GB
%nosave
#b3lyp/svp scf=(tight,noincore,xqc) Test 
#IOP(5/87=12) Density=Current Pop=(MK,readradii) iop(6/33=2) iop(6/42=6)

loop3.apoCaM-CA-Ng.Init293.run16.water5 

   0  1 
   C     53.97000000    17.58000000     3.08000000
   C     53.76000000    18.64000000     2.01000000
   O     54.03000000    19.82000000     2.21000000
   H     54.75200000    17.90700000     3.76600000
   H     53.04200000    17.43200000     3.63200000
   H     54.26800000    16.64300000     2.61000000
   N     53.42000000    18.25000000     0.78000000
   C     53.34000000    19.02000000    -0.44000000
   C     52.23000000    20.07000000    -0.51000000
   O     52.50000000    21.22000000    -0.84000000
   C     54.65000000    19.58000000    -1.00000000
   C     55.82000000    18.61000000    -0.96000000
   O     55.62000000    17.41000000    -1.25000000
   O     56.89000000    19.01000000    -0.45000000
   H     53.24000000    17.25000000     0.74000000
   H     52.95000000    18.36000000    -1.21000000
   H     54.87000000    20.44000000    -0.38000000
   H     54.59000000    19.79000000    -2.07000000
   N     50.97000000    19.68000000    -0.33000000
   C     49.84000000    20.55000000    -0.62000000
   C     49.84000000    21.94000000     0.01000000
   O     49.81000000    22.92000000    -0.73000000
   C     48.51000000    19.82000000    -0.50000000
   C     47.17000000    20.52000000    -0.74000000
   C     46.00000000    19.56000000    -0.58000000
   C     44.74000000    20.41000000    -0.51000000
   N     44.43000000    21.00000000    -1.82000000
   H     50.81000000    18.70000000    -0.14000000
   H     49.99000000    20.84000000    -1.66000000
   H     48.66000000    19.38000000     0.48000000
   H     48.52000000    18.95000000    -1.16000000
   H     47.26000000    20.90000000    -1.77000000
   H     47.06000000    21.32000000    -0.01000000
   H     46.15000000    19.04000000     0.36000000
   H     45.85000000    18.83000000    -1.38000000
   H     44.92000000    21.28000000     0.13000000
   H     43.94000000    19.77000000    -0.15000000
   H     45.01000000    21.82000000    -1.94000000
   H     44.70000000    20.41000000    -2.59000000
   H     43.45000000    21.22000000    -1.96000000
   N     50.10000000    22.01000000     1.32000000
   C     50.38000000    23.24000000     2.01000000
   C     51.33000000    23.14000000     3.20000000
   O     51.55000000    22.03000000     3.69000000
   C     49.04000000    23.86000000     2.41000000
   C     48.98000000    25.38000000     2.47000000
   O     47.87000000    25.94000000     2.59000000
   O     50.02000000    26.04000000     2.25000000
   H     50.41000000    21.10000000     1.65000000
   H     50.88000000    23.95000000     1.35000000
   H     48.82000000    23.49000000     3.42000000
   H     48.21000000    23.57000000     1.76000000
   N     51.72000000    24.32000000     3.69000000
   C     52.80000000    24.45000000     4.64000000
   C     53.11000000    25.92000000     4.85000000
   O     52.51000000    26.79000000     4.22000000
   H     51.30000000    25.14000000     3.28000000
   H     53.69000000    23.97000000     4.23000000
   H     52.56000000    23.97000000     5.59000000
   N     54.14000000    26.14000000     5.67000000
   C     54.42000000    27.52000000     6.02000000
   C     55.14000000    28.28000000     4.91000000
   O     55.47000000    29.45000000     5.07000000
   C     55.31000000    27.32000000     7.24000000
   C     54.52000000    27.04000000     8.51000000
   N     54.13000000    28.04000000     9.30000000
   O     54.14000000    25.90000000     8.76000000
   H     54.57000000    25.41000000     6.21000000
   H     53.46000000    28.01000000     6.19000000
   H     55.85000000    28.23000000     7.51000000
   H     56.00000000    26.51000000     7.03000000
   H     54.40000000    28.99000000     9.08000000
   H     53.40000000    27.87000000     9.98000000
   N     55.65000000    27.65000000     3.85000000
   C     56.49000000    28.36000000     2.90000000
   C     57.86000000    28.71000000     3.47000000
   O     58.47000000    28.00000000     4.27000000
   H     55.27000000    26.75000000     3.61000000
   H     55.88000000    29.20000000     2.57000000
   H     56.59000000    27.82000000     1.96000000
   N     58.34000000    29.87000000     3.02000000
   C     59.44000000    30.56000000     3.66000000
   C     59.34000000    30.91000000     5.14000000
   O     60.24000000    31.42000000     5.79000000
   C     60.76000000    29.92000000     3.22000000
   C     61.85000000    30.90000000     2.86000000
   C     62.92000000    31.21000000     3.71000000
   C     61.75000000    31.51000000     1.61000000
   C     63.84000000    32.18000000     3.29000000
   C     62.65000000    32.46000000     1.12000000
   C     63.68000000    32.79000000     2.03000000
   O     64.68000000    33.61000000     1.59000000
   H     57.98000000    30.33000000     2.20000000
   H     59.42000000    31.53000000     3.17000000
   H     60.57000000    29.32000000     2.32000000
   H     61.17000000    29.22000000     3.94000000
   H     62.95000000    30.65000000     4.63000000
   H     60.89000000    31.26000000     1.00000000
   H     64.66000000    32.39000000     3.96000000
   H     62.57000000    32.92000000     0.15000000
   H     64.41000000    34.02000000     0.77000000
   N     58.23000000    30.50000000     5.77000000
   C     58.09000000    30.71000000     7.20000000
   C     58.06000000    32.18000000     7.59000000
   O     56.99000000    32.79000000     7.52000000
   C     58.95000000    29.84000000     8.11000000
   C     59.11000000    28.39000000     7.68000000
   C     58.61000000    29.95000000     9.60000000
   C     59.94000000    27.51000000     8.61000000
   H     57.51000000    30.13000000     5.17000000
   H     57.07000000    30.38000000     7.34000000
   H     59.97000000    30.22000000     8.07000000
   H     59.60000000    28.39000000     6.70000000
   H     58.13000000    27.95000000     7.52000000
   H     59.49000000    29.67000000    10.18000000
   H     58.38000000    30.96000000     9.91000000
   H     57.73000000    29.36000000     9.87000000
   H     59.48000000    27.47000000     9.60000000
   H     60.07000000    26.56000000     8.09000000
   H     60.98000000    27.82000000     8.70000000
   N     59.18000000    32.86000000     7.82000000
   C     59.23000000    34.27000000     8.17000000
   C     58.46000000    34.66000000     9.42000000
   O     57.69000000    35.62000000     9.35000000
   C     60.68000000    34.66000000     8.42000000
   O     61.38000000    34.76000000     7.20000000
   H     60.07000000    32.46000000     7.56000000
   H     58.82000000    34.88000000     7.36000000
   H     61.18000000    33.92000000     9.04000000
   H     60.65000000    35.66000000     8.86000000
   H     62.27000000    34.58000000     7.50000000
   N     58.50000000    33.78000000    10.42000000
   C     57.59000000    33.76000000    11.55000000
   C     56.09000000    33.78000000    11.35000000
   O     55.29000000    34.04000000    12.24000000
   C     58.03000000    34.85000000    12.52000000
   H     59.26000000    33.11000000    10.37000000
   H     57.78000000    32.89000000    12.19000000
   H     57.98000000    35.82000000    12.02000000
   H     57.40000000    34.89000000    13.42000000
   H     59.05000000    34.64000000    12.83000000
   N     55.68000000    33.36000000    10.14000000
   C     54.31000000    33.31000000     9.69000000
   C     53.83000000    31.89000000     9.41000000
   O     54.59000000    30.94000000     9.23000000
   C     54.11000000    34.32000000     8.57000000
   H     56.38000000    33.10000000     9.46000000
   H     53.68000000    33.59000000    10.54000000
   H     54.49000000    33.98000000     7.61000000
   H     53.10000000    34.37000000     8.16000000
   H     54.40000000    35.33000000     8.85000000
   N     52.52000000    31.73000000     9.62000000
   C     51.69000000    30.55000000     9.75000000
   C     52.12000000    29.65000000    10.90000000
   O     51.85000000    28.45000000    10.93000000
   C     51.56000000    29.93000000     8.36000000
   C     51.10000000    30.89000000     7.27000000
   C     50.75000000    30.20000000     5.96000000
   O     51.63000000    29.92000000     5.13000000
   O     49.58000000    29.84000000     5.70000000
   H     52.05000000    32.57000000     9.93000000
   H     50.66000000    30.79000000     9.99000000
   H     50.88000000    29.09000000     8.47000000
   H     52.50000000    29.43000000     8.11000000
   H     51.97000000    31.54000000     7.12000000
   H     50.20000000    31.41000000     7.59000000
   N     52.79000000    30.27000000    11.87000000
   C     53.52000000    29.74000000    13.00000000
   H     54.42300000    30.33000000    13.15700000
   H     52.89500000    29.78800000    13.89200000
   H     53.79300000    28.70300000    12.80300000
   H     52.79000000    31.27000000    11.75000000
  Ca     50.50000000    28.49000000     3.38000000
   O     49.62000000    30.80000000     2.25000000
   H     48.75000000    31.00000000     1.92000000
   H     50.18000000    31.50000000     1.90000000
   O     52.77000000    28.76000000     1.98000000
   H     52.67000000    29.72000000     1.97000000
   H     53.35000000    28.57000000     1.24000000
   O     50.08000000    28.30000000     0.70000000
   H     50.26000000    28.44000000    -0.23000000
   H     50.20000000    27.36000000     0.83000000
   O     47.85000000    28.47000000     3.19000000
   H     47.07000000    28.71000000     3.68000000
   H     47.69000000    27.58000000     2.89000000
   O     49.68000000    26.80000000     5.24000000
   H     48.97000000    26.16000000     5.25000000
   H     50.19000000    26.61000000     6.03000000

Ca 1.00



