%chk=loop4.holoCaM.run57.water2.chk
%nprocshared=20
%mem=10GB
%nosave
#b3lyp/svp scf=(tight,noincore,xqc) Test 
#IOP(5/87=12) Density=Current Pop=(MK,readradii) iop(6/33=2) iop(6/42=6)

loop4.holoCaM.run57.water2 

   -3  1 
   C     78.49000000    60.82000000    -5.97000000
   C     78.16000000    62.13000000    -5.27000000
   O     77.86000000    63.11000000    -5.94000000
   H     79.48600000    60.49100000    -5.67400000
   H     77.75900000    60.06200000    -5.68800000
   H     78.46300000    60.96700000    -7.05000000
   N     78.23000000    62.29000000    -3.94000000
   C     78.05000000    63.50000000    -3.17000000
   C     79.09000000    64.58000000    -3.42000000
   O     80.28000000    64.47000000    -3.10000000
   C     78.05000000    63.13000000    -1.69000000
   C     77.72000000    64.36000000    -0.85000000
   O     78.38000000    64.63000000     0.17000000
   O     76.76000000    65.10000000    -1.15000000
   H     78.54000000    61.49000000    -3.41000000
   H     77.06000000    63.89000000    -3.41000000
   H     78.99000000    62.64000000    -1.46000000
   H     77.31000000    62.33000000    -1.66000000
   N     78.62000000    65.66000000    -4.03000000
   C     79.54000000    66.70000000    -4.45000000
   C     79.78000000    67.76000000    -3.39000000
   O     80.59000000    68.64000000    -3.67000000
   C     79.18000000    67.25000000    -5.83000000
   C     78.13000000    68.36000000    -5.84000000
   C     78.89000000    66.17000000    -6.86000000
   C     77.65000000    68.90000000    -7.18000000
   H     77.67000000    65.73000000    -4.39000000
   H     80.51000000    66.23000000    -4.62000000
   H     80.11000000    67.64000000    -6.24000000
   H     78.57000000    69.22000000    -5.34000000
   H     77.24000000    68.09000000    -5.26000000
   H     79.75000000    65.55000000    -7.11000000
   H     77.99000000    65.59000000    -6.68000000
   H     78.79000000    66.64000000    -7.84000000
   H     77.20000000    69.87000000    -6.97000000
   H     78.40000000    69.06000000    -7.95000000
   H     76.90000000    68.19000000    -7.54000000
   N     79.08000000    67.79000000    -2.25000000
   C     79.13000000    68.98000000    -1.44000000
   C     79.26000000    68.89000000     0.07000000
   O     79.65000000    69.87000000     0.70000000
   C     78.06000000    70.02000000    -1.79000000
   C     76.63000000    69.52000000    -1.61000000
   O     75.72000000    70.37000000    -1.56000000
   O     76.43000000    68.30000000    -1.47000000
   H     78.21000000    67.27000000    -2.20000000
   H     80.01000000    69.58000000    -1.69000000
   H     78.07000000    70.33000000    -2.83000000
   H     78.17000000    70.93000000    -1.20000000
   N     78.98000000    67.70000000     0.61000000
   C     79.59000000    67.19000000     1.82000000
   C     78.53000000    66.65000000     2.77000000
   O     78.79000000    66.67000000     3.97000000
   H     78.49000000    67.08000000    -0.02000000
   H     80.20000000    67.92000000     2.36000000
   H     80.13000000    66.33000000     1.43000000
   N     77.38000000    66.13000000     2.32000000
   C     76.32000000    65.69000000     3.21000000
   C     76.06000000    64.19000000     3.17000000
   O     75.38000000    63.60000000     4.01000000
   C     75.00000000    66.41000000     2.98000000
   C     74.68000000    66.41000000     1.49000000
   O     74.69000000    67.52000000     0.91000000
   O     74.36000000    65.36000000     0.89000000
   H     77.37000000    65.91000000     1.34000000
   H     76.61000000    65.97000000     4.22000000
   H     75.20000000    67.43000000     3.30000000
   H     74.10000000    66.06000000     3.49000000
   N     76.79000000    63.47000000     2.32000000
   C     76.64000000    62.06000000     2.01000000
   C     75.37000000    61.65000000     1.28000000
   O     75.23000000    60.43000000     1.18000000
   H     77.48000000    63.95000000     1.76000000
   H     76.51000000    61.49000000     2.93000000
   H     77.43000000    61.71000000     1.34000000
   N     74.48000000    62.51000000     0.78000000
   C     73.36000000    62.23000000    -0.09000000
   C     73.41000000    62.97000000    -1.42000000
   O     74.13000000    63.95000000    -1.58000000
   C     71.99000000    62.46000000     0.54000000
   C     71.73000000    61.75000000     1.87000000
   C     70.28000000    61.55000000     2.29000000
   N     70.00000000    60.79000000     3.35000000
   O     69.33000000    62.12000000     1.76000000
   H     74.72000000    63.47000000     0.99000000
   H     73.41000000    61.17000000    -0.34000000
   H     71.22000000    62.15000000    -0.17000000
   H     71.94000000    63.53000000     0.74000000
   H     72.33000000    62.15000000     2.68000000
   H     72.08000000    60.74000000     1.65000000
   H     70.72000000    60.28000000     3.86000000
   H     69.04000000    60.72000000     3.64000000
   N     72.64000000    62.48000000    -2.39000000
   C     72.55000000    63.17000000    -3.66000000
   C     71.20000000    63.83000000    -3.89000000
   O     70.18000000    63.32000000    -3.44000000
   C     72.90000000    62.32000000    -4.88000000
   C     74.33000000    61.79000000    -4.79000000
   C     71.86000000    61.24000000    -5.13000000
   H     72.05000000    61.68000000    -2.18000000
   H     73.24000000    64.02000000    -3.60000000
   H     72.85000000    62.97000000    -5.76000000
   H     74.25000000    60.89000000    -4.18000000
   H     74.66000000    61.40000000    -5.76000000
   H     75.07000000    62.38000000    -4.27000000
   H     72.40000000    60.47000000    -5.68000000
   H     71.49000000    60.65000000    -4.29000000
   H     70.99000000    61.59000000    -5.69000000
   N     71.26000000    64.99000000    -4.56000000
   C     70.13000000    65.71000000    -5.11000000
   C     69.98000000    65.44000000    -6.60000000
   O     70.67000000    64.64000000    -7.22000000
   C     70.18000000    67.20000000    -4.78000000
   C     71.00000000    68.04000000    -5.75000000
   N     72.32000000    67.90000000    -5.77000000
   O     70.41000000    68.77000000    -6.54000000
   H     72.20000000    65.23000000    -4.84000000
   H     69.24000000    65.22000000    -4.74000000
   H     70.61000000    67.23000000    -3.77000000
   H     69.15000000    67.55000000    -4.68000000
   H     72.81000000    67.31000000    -5.10000000
   H     72.90000000    68.61000000    -6.20000000
   N     69.01000000    66.07000000    -7.27000000
   C     68.75000000    65.80000000    -8.67000000
   C     69.96000000    66.16000000    -9.52000000
   O     70.33000000    65.37000000   -10.39000000
   C     67.56000000    66.55000000    -9.25000000
   C     67.37000000    66.41000000   -10.74000000
   C     66.75000000    65.27000000   -11.27000000
   C     67.71000000    67.41000000   -11.66000000
   C     66.55000000    65.01000000   -12.63000000
   C     67.59000000    67.14000000   -13.03000000
   C     66.97000000    65.99000000   -13.55000000
   O     66.93000000    65.83000000   -14.91000000
   H     68.33000000    66.60000000    -6.74000000
   H     68.47000000    64.77000000    -8.90000000
   H     67.62000000    67.62000000    -9.06000000
   H     66.66000000    66.13000000    -8.79000000
   H     66.49000000    64.50000000   -10.56000000
   H     68.12000000    68.31000000   -11.25000000
   H     66.10000000    64.06000000   -12.90000000
   H     68.05000000    67.83000000   -13.73000000
   H     67.53000000    66.49000000   -15.27000000
   N     70.64000000    67.25000000    -9.14000000
   C     71.79000000    67.79000000    -9.83000000
   C     73.04000000    66.95000000    -9.62000000
   O     73.83000000    66.69000000   -10.53000000
   C     71.98000000    69.22000000    -9.32000000
   C     73.17000000    69.99000000    -9.88000000
   C     72.98000000    71.46000000    -9.53000000
   O     72.32000000    72.11000000   -10.36000000
   O     73.66000000    71.98000000    -8.62000000
   H     70.27000000    67.83000000    -8.41000000
   H     71.56000000    67.79000000   -10.89000000
   H     72.25000000    69.17000000    -8.26000000
   H     71.09000000    69.82000000    -9.51000000
   H     73.22000000    69.89000000   -10.96000000
   H     74.09000000    69.55000000    -9.49000000
   N     73.21000000    66.34000000    -8.44000000
   C     74.21000000    65.31000000    -8.27000000
   C     73.85000000    63.95000000    -8.86000000
   O     74.73000000    63.17000000    -9.21000000
   C     74.30000000    65.10000000    -6.76000000
   C     75.03000000    66.24000000    -6.06000000
   C     74.90000000    66.24000000    -4.55000000
   O     73.78000000    66.33000000    -4.00000000
   O     75.93000000    66.26000000    -3.84000000
   H     72.47000000    66.34000000    -7.76000000
   H     75.21000000    65.58000000    -8.60000000
   H     74.86000000    64.18000000    -6.61000000
   H     73.27000000    65.07000000    -6.41000000
   H     74.70000000    67.16000000    -6.56000000
   H     76.09000000    66.23000000    -6.31000000
   N     72.56000000    63.65000000    -9.02000000
   C     72.05000000    62.41000000    -9.57000000
   H     71.11800000    62.60500000   -10.10100000
   H     72.78100000    61.99100000   -10.26100000
   H     71.86600000    61.70200000    -8.76200000
   H     71.83000000    64.24000000    -8.64000000
  Ca     74.59000000    66.49000000    -1.47300000
   O     73.67000000    68.96000000    -2.23300000
   H     74.43000000    69.48000000    -1.96300000
   H     73.17000000    69.54000000    -2.79300000
   O     71.98000000    66.19000000    -0.84300000
   H     72.28000000    65.91000000     0.01700000
   H     71.08000000    66.48000000    -0.69300000

Ca 1.00



