%chk=loop3.apoCaM-CA-Ng.Init295.run45.water3.chk
%nprocshared=20
%mem=10GB
%nosave
#b3lyp/svp scf=(tight,noincore,xqc) Test 
#IOP(5/87=12) Density=Current Pop=(MK,readradii) iop(6/33=2) iop(6/42=6)

loop3.apoCaM-CA-Ng.Init295.run45.water3 

   0  1 
   C     88.88000000    16.73000000    50.97000000
   C     88.51000000    16.04000000    52.28000000
   O     88.31000000    16.72000000    53.28000000
   H     89.91100000    16.48700000    50.71100000
   H     88.21600000    16.38600000    50.17700000
   H     88.78000000    17.80900000    51.08600000
   N     88.51000000    14.71000000    52.37000000
   C     88.47000000    13.92000000    53.59000000
   C     89.68000000    13.01000000    53.70000000
   O     90.25000000    12.55000000    52.71000000
   C     87.11000000    13.23000000    53.70000000
   C     86.85000000    12.64000000    55.08000000
   O     86.11000000    13.29000000    55.84000000
   O     87.25000000    11.50000000    55.43000000
   H     88.81000000    14.20000000    51.55000000
   H     88.63000000    14.63000000    54.41000000
   H     86.97000000    12.56000000    52.86000000
   H     86.34000000    14.00000000    53.56000000
   N     90.07000000    12.69000000    54.93000000
   C     91.17000000    11.80000000    55.25000000
   C     90.88000000    10.33000000    55.00000000
   O     91.76000000     9.56000000    54.59000000
   C     91.74000000    12.09000000    56.63000000
   C     93.09000000    11.46000000    56.97000000
   C     94.24000000    11.87000000    56.06000000
   C     95.48000000    11.17000000    56.59000000
   N     96.66000000    11.68000000    55.88000000
   H     89.47000000    13.08000000    55.65000000
   H     91.95000000    12.10000000    54.55000000
   H     90.98000000    11.85000000    57.37000000
   H     91.89000000    13.16000000    56.70000000
   H     92.94000000    10.38000000    57.07000000
   H     93.37000000    11.69000000    58.00000000
   H     94.36000000    12.95000000    56.20000000
   H     94.02000000    11.73000000    55.00000000
   H     95.43000000    10.08000000    56.48000000
   H     95.48000000    11.32000000    57.67000000
   H     97.49000000    11.25000000    56.26000000
   H     96.50000000    11.46000000    54.90000000
   H     96.74000000    12.68000000    55.96000000
   N     89.65000000     9.87000000    55.22000000
   C     89.17000000     8.50000000    55.20000000
   C     87.97000000     8.21000000    54.31000000
   O     87.38000000     7.14000000    54.45000000
   C     88.88000000     8.03000000    56.62000000
   C     88.05000000     9.06000000    57.37000000
   O     86.80000000     9.08000000    57.24000000
   O     88.60000000     9.90000000    58.11000000
   H     88.93000000    10.43000000    55.67000000
   H     89.95000000     7.87000000    54.77000000
   H     89.83000000     7.92000000    57.14000000
   H     88.40000000     7.06000000    56.57000000
   N     87.74000000     9.10000000    53.34000000
   C     86.76000000     8.97000000    52.29000000
   C     85.29000000     8.95000000    52.69000000
   O     84.41000000     8.85000000    51.84000000
   H     88.33000000     9.92000000    53.32000000
   H     87.03000000     8.11000000    51.67000000
   H     86.93000000     9.82000000    51.62000000
   N     84.99000000     9.25000000    53.95000000
   C     83.68000000     9.33000000    54.56000000
   C     83.58000000    10.74000000    55.11000000
   O     84.27000000    11.02000000    56.09000000
   C     83.60000000     8.26000000    55.65000000
   C     83.43000000     6.82000000    55.20000000
   N     84.41000000     5.95000000    55.44000000
   O     82.37000000     6.42000000    54.74000000
   H     85.76000000     9.68000000    54.45000000
   H     82.90000000     9.25000000    53.81000000
   H     82.83000000     8.50000000    56.40000000
   H     84.50000000     8.32000000    56.27000000
   H     85.21000000     6.28000000    55.96000000
   H     84.36000000     4.98000000    55.15000000
   N     82.80000000    11.66000000    54.54000000
   C     83.02000000    13.08000000    54.73000000
   C     82.69000000    13.71000000    56.08000000
   O     82.55000000    14.92000000    56.17000000
   H     82.20000000    11.44000000    53.76000000
   H     82.49000000    13.69000000    53.99000000
   H     84.07000000    13.31000000    54.59000000
   N     82.54000000    12.87000000    57.11000000
   C     82.27000000    13.20000000    58.49000000
   C     83.53000000    13.65000000    59.22000000
   O     84.54000000    12.96000000    59.22000000
   C     81.42000000    12.10000000    59.12000000
   C     80.11000000    11.90000000    58.38000000
   C     79.88000000    10.80000000    57.56000000
   C     79.09000000    12.84000000    58.60000000
   C     78.67000000    10.62000000    56.88000000
   C     77.85000000    12.71000000    57.97000000
   C     77.70000000    11.62000000    57.08000000
   O     76.57000000    11.52000000    56.32000000
   H     82.76000000    11.90000000    56.93000000
   H     81.59000000    14.06000000    58.49000000
   H     81.14000000    12.48000000    60.10000000
   H     82.00000000    11.19000000    59.22000000
   H     80.69000000    10.09000000    57.44000000
   H     79.26000000    13.75000000    59.15000000
   H     78.43000000     9.79000000    56.23000000
   H     77.13000000    13.49000000    58.14000000
   H     75.98000000    12.25000000    56.48000000
   N     83.47000000    14.83000000    59.84000000
   C     84.45000000    15.58000000    60.59000000
   C     85.08000000    14.77000000    61.71000000
   O     84.63000000    13.65000000    61.96000000
   C     85.40000000    16.33000000    59.65000000
   C     84.63000000    17.23000000    58.69000000
   C     86.47000000    15.48000000    58.98000000
   C     83.69000000    18.17000000    59.43000000
   H     82.55000000    15.24000000    59.94000000
   H     84.00000000    16.43000000    61.11000000
   H     85.95000000    16.95000000    60.34000000
   H     84.10000000    16.67000000    57.92000000
   H     85.36000000    17.82000000    58.13000000
   H     86.89000000    14.81000000    59.73000000
   H     85.96000000    14.89000000    58.21000000
   H     87.21000000    16.06000000    58.43000000
   H     84.26000000    18.62000000    60.24000000
   H     83.44000000    19.05000000    58.83000000
   H     82.80000000    17.62000000    59.76000000
   N     86.08000000    15.28000000    62.45000000
   C     86.52000000    14.64000000    63.67000000
   C     85.62000000    14.88000000    64.88000000
   O     85.88000000    14.30000000    65.93000000
   C     87.96000000    15.04000000    63.94000000
   O     88.66000000    14.86000000    62.73000000
   H     86.70000000    15.99000000    62.09000000
   H     86.57000000    13.56000000    63.51000000
   H     88.31000000    14.30000000    64.67000000
   H     87.97000000    16.06000000    64.34000000
   H     89.40000000    15.47000000    62.82000000
   N     84.66000000    15.80000000    64.81000000
   C     83.57000000    15.98000000    65.75000000
   C     84.02000000    16.15000000    67.20000000
   O     83.86000000    15.26000000    68.03000000
   C     82.63000000    14.79000000    65.59000000
   H     84.56000000    16.32000000    63.95000000
   H     82.97000000    16.83000000    65.42000000
   H     82.45000000    14.72000000    64.51000000
   H     83.21000000    13.94000000    65.95000000
   H     81.70000000    14.88000000    66.14000000
   N     84.66000000    17.27000000    67.54000000
   C     84.81000000    18.52000000    66.82000000
   C     84.49000000    19.66000000    67.78000000
   O     84.54000000    19.46000000    68.99000000
   C     86.19000000    18.50000000    66.16000000
   H     84.96000000    17.33000000    68.50000000
   H     84.09000000    18.57000000    66.01000000
   H     86.53000000    19.48000000    65.82000000
   H     86.98000000    18.26000000    66.87000000
   H     86.16000000    17.71000000    65.41000000
   N     84.52000000    20.91000000    67.31000000
   C     84.56000000    21.43000000    65.96000000
   C     83.21000000    21.94000000    65.47000000
   O     82.90000000    21.77000000    64.30000000
   C     85.69000000    22.45000000    65.87000000
   C     85.35000000    23.80000000    66.49000000
   C     86.61000000    24.63000000    66.70000000
   O     86.99000000    24.92000000    67.86000000
   O     87.14000000    25.17000000    65.70000000
   H     84.37000000    21.58000000    68.05000000
   H     84.79000000    20.61000000    65.28000000
   H     85.96000000    22.61000000    64.82000000
   H     86.59000000    22.03000000    66.32000000
   H     84.81000000    23.76000000    67.44000000
   H     84.61000000    24.29000000    65.86000000
   N     82.38000000    22.52000000    66.34000000
   C     81.10000000    23.07000000    65.93000000
   H     80.38000000    22.95600000    66.74000000
   H     81.21700000    24.12800000    65.69500000
   H     80.74100000    22.53900000    65.04800000
   H     82.68000000    22.58000000    67.30000000
  Ca     86.35000000    11.49000000    57.83000000
   O     86.88000000    12.17000000    60.36000000
   H     86.23000000    12.74000000    60.78000000
   H     87.35000000    11.78000000    61.10000000
   O     84.47000000     9.99000000    59.04000000
   H     83.96000000     9.22000000    58.79000000
   H     84.33000000    10.08000000    59.99000000
   O     88.68000000    12.95000000    57.90000000
   H     89.28000000    12.98000000    58.64000000
   H     88.58000000    13.86000000    57.62000000

Ca 1.00



