%chk=loop3.apoCaM-CA-Ng.Init31.run8.water6.chk
%nprocshared=20
%mem=10GB
%nosave
#b3lyp/svp scf=(tight,noincore,xqc) Test 
#IOP(5/87=12) Density=Current Pop=(MK,readradii) iop(6/33=2) iop(6/42=6)

loop3.apoCaM-CA-Ng.Init31.run8.water6 

   0  1 
   C     85.64000000    61.02000000    32.59000000
   C     85.91000000    59.84000000    33.52000000
   O     85.01000000    59.30000000    34.16000000
   H     84.80600000    61.60500000    32.97800000
   H     86.52800000    61.64900000    32.53300000
   H     85.39200000    60.65000000    31.59500000
   N     87.13000000    59.30000000    33.50000000
   C     87.57000000    58.14000000    34.24000000
   C     87.68000000    58.39000000    35.74000000
   O     87.04000000    57.69000000    36.53000000
   C     88.70000000    57.40000000    33.53000000
   C     89.93000000    58.27000000    33.28000000
   O     90.18000000    59.40000000    33.75000000
   O     90.90000000    57.78000000    32.66000000
   H     87.77000000    59.79000000    32.89000000
   H     86.73000000    57.47000000    34.14000000
   H     88.34000000    57.07000000    32.56000000
   H     89.02000000    56.49000000    34.03000000
   N     88.52000000    59.35000000    36.14000000
   C     88.67000000    59.70000000    37.54000000
   C     89.24000000    58.65000000    38.48000000
   O     90.45000000    58.43000000    38.41000000
   C     89.51000000    60.96000000    37.71000000
   C     89.03000000    61.71000000    38.95000000
   C     89.87000000    62.95000000    39.25000000
   C     89.49000000    63.69000000    40.53000000
   N     90.01000000    65.05000000    40.71000000
   H     89.23000000    59.62000000    35.47000000
   H     87.66000000    60.01000000    37.82000000
   H     89.35000000    61.64000000    36.87000000
   H     90.58000000    60.77000000    37.83000000
   H     89.14000000    61.03000000    39.79000000
   H     87.99000000    61.98000000    38.75000000
   H     89.96000000    63.55000000    38.35000000
   H     90.91000000    62.72000000    39.49000000
   H     89.59000000    63.04000000    41.39000000
   H     88.44000000    63.98000000    40.42000000
   H     89.31000000    65.60000000    41.20000000
   H     90.95000000    65.08000000    41.06000000
   H     90.01000000    65.55000000    39.83000000
   N     88.39000000    58.11000000    39.36000000
   C     88.77000000    57.07000000    40.30000000
   C     88.70000000    55.73000000    39.59000000
   O     89.17000000    54.72000000    40.11000000
   C     87.91000000    57.04000000    41.56000000
   C     88.65000000    56.57000000    42.81000000
   O     88.05000000    55.80000000    43.59000000
   O     89.71000000    57.14000000    43.15000000
   H     87.55000000    58.63000000    39.54000000
   H     89.78000000    57.26000000    40.69000000
   H     87.03000000    56.43000000    41.36000000
   H     87.59000000    58.08000000    41.66000000
   N     88.12000000    55.73000000    38.39000000
   C     87.94000000    54.60000000    37.50000000
   C     89.17000000    54.10000000    36.76000000
   O     90.28000000    54.57000000    37.01000000
   H     87.63000000    56.58000000    38.13000000
   H     87.21000000    54.96000000    36.78000000
   H     87.42000000    53.86000000    38.11000000
   N     89.00000000    53.19000000    35.80000000
   C     87.81000000    52.44000000    35.43000000
   C     87.76000000    52.29000000    33.92000000
   O     88.62000000    51.63000000    33.34000000
   C     87.90000000    51.09000000    36.14000000
   C     86.69000000    50.23000000    35.81000000
   N     86.22000000    49.49000000    36.81000000
   O     86.13000000    50.19000000    34.71000000
   H     89.82000000    52.91000000    35.28000000
   H     86.90000000    52.98000000    35.66000000
   H     88.21000000    51.21000000    37.18000000
   H     88.71000000    50.60000000    35.60000000
   H     86.63000000    49.53000000    37.73000000
   H     85.37000000    48.96000000    36.66000000
   N     86.98000000    53.01000000    33.13000000
   C     86.20000000    54.21000000    33.42000000
   C     85.16000000    54.17000000    34.52000000
   O     85.06000000    55.16000000    35.24000000
   H     86.84000000    52.65000000    32.19000000
   H     85.63000000    54.47000000    32.52000000
   H     86.90000000    55.00000000    33.69000000
   N     84.36000000    53.09000000    34.56000000
   C     83.36000000    52.91000000    35.58000000
   C     83.88000000    53.00000000    37.01000000
   O     84.99000000    52.56000000    37.31000000
   C     82.63000000    51.58000000    35.42000000
   C     81.90000000    51.45000000    34.10000000
   C     80.63000000    52.03000000    33.96000000
   C     82.47000000    50.78000000    33.01000000
   C     79.88000000    51.71000000    32.83000000
   C     81.73000000    50.48000000    31.86000000
   C     80.41000000    50.96000000    31.76000000
   O     79.58000000    50.59000000    30.75000000
   H     84.43000000    52.38000000    33.85000000
   H     82.69000000    53.73000000    35.33000000
   H     81.87000000    51.51000000    36.20000000
   H     83.37000000    50.78000000    35.44000000
   H     80.14000000    52.57000000    34.76000000
   H     83.49000000    50.42000000    33.09000000
   H     78.86000000    52.08000000    32.80000000
   H     82.16000000    50.08000000    30.95000000
   H     79.92000000    49.90000000    30.18000000
   N     82.99000000    53.45000000    37.90000000
   C     83.32000000    53.67000000    39.30000000
   C     82.39000000    52.83000000    40.16000000
   O     82.88000000    52.28000000    41.14000000
   C     83.34000000    55.16000000    39.60000000
   C     84.63000000    55.75000000    39.04000000
   C     82.07000000    55.88000000    39.14000000
   C     84.78000000    57.22000000    39.41000000
   H     82.14000000    53.91000000    37.63000000
   H     84.27000000    53.16000000    39.47000000
   H     83.44000000    55.38000000    40.66000000
   H     84.73000000    55.66000000    37.96000000
   H     85.50000000    55.19000000    39.42000000
   H     82.12000000    56.89000000    39.53000000
   H     82.03000000    55.91000000    38.05000000
   H     81.16000000    55.39000000    39.48000000
   H     84.04000000    57.78000000    38.84000000
   H     84.59000000    57.40000000    40.47000000
   H     85.77000000    57.57000000    39.10000000
   N     81.19000000    52.52000000    39.64000000
   C     80.41000000    51.43000000    40.19000000
   C     79.72000000    51.85000000    41.48000000
   O     79.34000000    53.02000000    41.58000000
   C     79.46000000    50.85000000    39.15000000
   O     80.06000000    50.55000000    37.91000000
   H     81.09000000    52.90000000    38.72000000
   H     81.13000000    50.65000000    40.47000000
   H     78.73000000    51.64000000    38.97000000
   H     78.97000000    49.99000000    39.61000000
   H     80.75000000    49.90000000    38.05000000
   N     79.57000000    50.98000000    42.47000000
   C     78.93000000    51.20000000    43.75000000
   C     79.66000000    52.17000000    44.68000000
   O     80.88000000    52.16000000    44.54000000
   C     78.71000000    49.86000000    44.45000000
   H     79.90000000    50.03000000    42.32000000
   H     77.93000000    51.59000000    43.61000000
   H     79.67000000    49.45000000    44.77000000
   H     78.05000000    50.01000000    45.30000000
   H     78.17000000    49.18000000    43.79000000
   N     78.96000000    52.86000000    45.58000000
   C     79.61000000    53.39000000    46.76000000
   C     80.62000000    54.50000000    46.50000000
   O     81.55000000    54.78000000    47.26000000
   C     80.18000000    52.22000000    47.56000000
   H     77.95000000    52.81000000    45.48000000
   H     78.84000000    53.87000000    47.36000000
   H     81.08000000    51.78000000    47.14000000
   H     80.37000000    52.59000000    48.57000000
   H     79.52000000    51.35000000    47.58000000
   N     80.58000000    55.10000000    45.31000000
   C     81.50000000    56.09000000    44.77000000
   C     80.82000000    57.31000000    44.17000000
   O     81.50000000    58.27000000    43.83000000
   C     82.39000000    55.41000000    43.73000000
   C     83.76000000    56.08000000    43.69000000
   C     84.72000000    55.58000000    44.76000000
   O     85.52000000    54.69000000    44.39000000
   O     84.71000000    56.05000000    45.92000000
   H     79.92000000    54.73000000    44.65000000
   H     82.15000000    56.40000000    45.59000000
   H     81.79000000    55.44000000    42.83000000
   H     82.41000000    54.34000000    43.93000000
   H     83.69000000    57.17000000    43.68000000
   H     84.08000000    55.97000000    42.66000000
   N     79.51000000    57.29000000    43.90000000
   C     78.75000000    58.38000000    43.33000000
   H     77.82700000    58.51200000    43.89400000
   H     79.33800000    59.29700000    43.37600000
   H     78.51100000    58.15300000    42.29100000
   H     79.01000000    56.44000000    44.12000000
  Ca     87.48000000    53.30000000    44.10000000
   O     89.20000000    51.64000000    42.74000000
   H     89.91000000    51.22000000    43.22000000
   H     89.01000000    51.04000000    42.02000000
   O     86.90000000    53.70000000    41.53000000
   H     86.62000000    54.45000000    41.01000000
   H     87.28000000    53.10000000    40.89000000
   O     87.22000000    53.61000000    46.81000000
   H     87.12000000    54.44000000    47.27000000
   H     87.31000000    52.96000000    47.51000000
   O     87.30000000    50.51000000    44.72000000
   H     88.10000000    50.00000000    44.78000000
   H     86.76000000    50.03000000    44.09000000
   O     85.11000000    52.09000000    43.36000000
   H     84.45000000    51.44000000    43.61000000
   H     84.73000000    52.53000000    42.59000000
   O     89.71000000    53.71000000    45.30000000
   H     90.41000000    54.35000000    45.23000000
   H     89.85000000    53.30000000    46.16000000

Ca 1.00



