%chk=loop3.holoCaM.run95.water2.chk
%nprocshared=20
%mem=10GB
%nosave
#b3lyp/svp scf=(tight,noincore,xqc) Test 
#IOP(5/87=12) Density=Current Pop=(MK,readradii) iop(6/33=2) iop(6/42=6)

loop3.holoCaM.run95.water2 

   0  1 
   C     47.58000000    43.72000000    16.71000000
   C     49.08000000    43.95000000    16.80000000
   O     49.90000000    43.03000000    16.87000000
   H     47.08500000    44.65400000    16.44200000
   H     47.37200000    42.96800000    15.94900000
   H     47.20600000    43.37500000    17.67400000
   N     49.44000000    45.22000000    17.03000000
   C     50.59000000    45.76000000    17.72000000
   C     50.57000000    45.41000000    19.20000000
   O     49.61000000    45.65000000    19.93000000
   C     50.47000000    47.27000000    17.63000000
   C     51.67000000    48.10000000    18.06000000
   O     52.65000000    47.48000000    18.54000000
   O     51.65000000    49.32000000    17.78000000
   H     48.73000000    45.92000000    16.87000000
   H     51.55000000    45.44000000    17.32000000
   H     49.59000000    47.58000000    18.19000000
   H     50.36000000    47.55000000    16.58000000
   N     51.52000000    44.60000000    19.69000000
   C     51.49000000    43.91000000    20.96000000
   C     52.07000000    44.69000000    22.13000000
   O     52.16000000    44.10000000    23.20000000
   C     52.04000000    42.49000000    20.88000000
   C     51.19000000    41.69000000    19.89000000
   C     49.70000000    41.60000000    20.23000000
   C     48.97000000    40.81000000    19.16000000
   N     47.53000000    40.71000000    19.45000000
   H     52.18000000    44.29000000    18.99000000
   H     50.46000000    43.87000000    21.32000000
   H     51.90000000    42.02000000    21.85000000
   H     53.08000000    42.51000000    20.56000000
   H     51.60000000    40.69000000    19.76000000
   H     51.47000000    42.16000000    18.94000000
   H     49.34000000    42.62000000    20.08000000
   H     49.48000000    41.11000000    21.18000000
   H     49.43000000    39.84000000    18.97000000
   H     49.05000000    41.34000000    18.21000000
   H     47.13000000    40.25000000    18.64000000
   H     47.36000000    39.98000000    20.13000000
   H     47.13000000    41.62000000    19.62000000
   N     52.43000000    45.96000000    21.98000000
   C     52.69000000    46.98000000    22.97000000
   C     51.94000000    48.27000000    22.64000000
   O     51.69000000    49.14000000    23.47000000
   C     54.20000000    47.16000000    23.12000000
   C     55.04000000    47.20000000    21.85000000
   O     54.54000000    47.50000000    20.75000000
   O     56.27000000    47.00000000    21.90000000
   H     52.53000000    46.27000000    21.02000000
   H     52.25000000    46.52000000    23.86000000
   H     54.54000000    46.28000000    23.67000000
   H     54.38000000    48.04000000    23.73000000
   N     51.68000000    48.49000000    21.35000000
   C     50.86000000    49.59000000    20.90000000
   C     51.70000000    50.83000000    20.62000000
   O     51.03000000    51.81000000    20.31000000
   H     52.16000000    47.91000000    20.67000000
   H     50.14000000    49.93000000    21.65000000
   H     50.14000000    49.32000000    20.13000000
   N     53.03000000    50.75000000    20.50000000
   C     53.92000000    51.86000000    20.21000000
   C     53.64000000    52.60000000    18.91000000
   O     54.15000000    53.70000000    18.77000000
   C     55.34000000    51.31000000    20.33000000
   C     55.81000000    50.51000000    19.12000000
   N     57.08000000    50.58000000    18.73000000
   O     55.08000000    49.70000000    18.55000000
   H     53.35000000    49.81000000    20.67000000
   H     53.81000000    52.60000000    21.00000000
   H     55.49000000    50.65000000    21.18000000
   H     55.99000000    52.18000000    20.46000000
   H     57.79000000    51.10000000    19.23000000
   H     57.29000000    49.90000000    18.02000000
   N     52.89000000    52.01000000    17.97000000
   C     52.52000000    52.62000000    16.71000000
   C     52.71000000    51.70000000    15.52000000
   O     52.29000000    52.11000000    14.44000000
   H     52.70000000    51.03000000    18.11000000
   H     53.14000000    53.49000000    16.51000000
   H     51.49000000    52.98000000    16.64000000
   N     53.36000000    50.55000000    15.71000000
   C     53.98000000    49.80000000    14.64000000
   C     54.02000000    48.31000000    14.97000000
   O     54.19000000    47.94000000    16.12000000
   C     55.36000000    50.37000000    14.31000000
   C     55.49000000    51.85000000    14.02000000
   C     54.79000000    52.31000000    12.90000000
   C     56.01000000    52.73000000    14.97000000
   C     54.88000000    53.67000000    12.57000000
   C     55.91000000    54.11000000    14.72000000
   C     55.40000000    54.59000000    13.49000000
   O     55.50000000    55.92000000    13.18000000
   H     53.44000000    50.13000000    16.63000000
   H     53.31000000    49.93000000    13.79000000
   H     55.71000000    49.85000000    13.42000000
   H     56.03000000    50.14000000    15.14000000
   H     54.27000000    51.66000000    12.21000000
   H     56.34000000    52.37000000    15.93000000
   H     54.47000000    54.00000000    11.63000000
   H     56.45000000    54.76000000    15.37000000
   H     55.97000000    56.28000000    13.94000000
   N     53.82000000    47.46000000    13.96000000
   C     53.89000000    46.01000000    14.05000000
   C     55.16000000    45.50000000    13.40000000
   O     55.46000000    45.94000000    12.29000000
   C     52.66000000    45.37000000    13.42000000
   C     51.43000000    45.52000000    14.32000000
   C     52.89000000    43.92000000    13.02000000
   C     50.16000000    44.97000000    13.69000000
   H     53.78000000    47.83000000    13.02000000
   H     53.97000000    45.76000000    15.11000000
   H     52.52000000    46.02000000    12.56000000
   H     51.29000000    46.56000000    14.64000000
   H     51.55000000    44.95000000    15.24000000
   H     51.99000000    43.65000000    12.46000000
   H     53.69000000    43.82000000    12.29000000
   H     53.15000000    43.27000000    13.85000000
   H     49.27000000    45.50000000    14.03000000
   H     50.27000000    44.98000000    12.60000000
   H     50.03000000    43.93000000    13.96000000
   N     55.90000000    44.63000000    14.10000000
   C     57.14000000    44.00000000    13.69000000
   C     56.90000000    42.49000000    13.66000000
   O     55.86000000    41.93000000    13.98000000
   C     58.26000000    44.41000000    14.64000000
   O     58.12000000    43.79000000    15.90000000
   H     55.48000000    44.44000000    14.99000000
   H     57.37000000    44.21000000    12.65000000
   H     58.31000000    45.50000000    14.66000000
   H     59.22000000    44.09000000    14.22000000
   H     57.31000000    44.16000000    16.25000000
   N     57.87000000    41.78000000    13.09000000
   C     57.83000000    40.37000000    12.74000000
   C     57.30000000    39.42000000    13.81000000
   O     56.32000000    38.72000000    13.56000000
   C     59.22000000    39.99000000    12.23000000
   H     58.69000000    42.34000000    12.91000000
   H     57.03000000    40.30000000    12.01000000
   H     59.51000000    40.75000000    11.50000000
   H     59.84000000    39.98000000    13.12000000
   H     59.16000000    39.03000000    11.72000000
   N     57.93000000    39.41000000    14.99000000
   C     57.52000000    38.65000000    16.15000000
   C     56.05000000    38.87000000    16.52000000
   O     55.32000000    37.95000000    16.88000000
   C     58.44000000    39.01000000    17.31000000
   H     58.67000000    40.07000000    15.16000000
   H     57.56000000    37.58000000    15.97000000
   H     58.60000000    40.08000000    17.44000000
   H     58.22000000    38.44000000    18.21000000
   H     59.48000000    38.76000000    17.06000000
   N     55.55000000    40.08000000    16.29000000
   C     54.17000000    40.47000000    16.51000000
   C     53.23000000    39.91000000    15.45000000
   O     52.14000000    39.46000000    15.79000000
   C     53.98000000    41.98000000    16.64000000
   C     54.93000000    42.58000000    17.67000000
   C     55.01000000    44.10000000    17.70000000
   O     55.80000000    44.72000000    16.96000000
   O     54.21000000    44.74000000    18.42000000
   H     56.15000000    40.72000000    15.78000000
   H     53.78000000    40.05000000    17.43000000
   H     52.96000000    42.18000000    16.98000000
   H     54.19000000    42.40000000    15.66000000
   H     55.93000000    42.21000000    17.44000000
   H     54.68000000    42.26000000    18.68000000
   N     53.68000000    40.05000000    14.19000000
   C     52.97000000    39.49000000    13.06000000
   H     52.06600000    40.07000000    12.87600000
   H     53.60800000    39.52300000    12.17700000
   H     52.70000000    38.45600000    13.27600000
   H     54.67000000    40.20000000    14.10000000
  Ca     55.10000000    47.06000000    18.39000000
   O     57.00000000    45.64000000    19.60000000
   H     57.59000000    44.96000000    19.27000000
   H     57.26000000    45.77000000    20.51000000
   O     57.49000000    48.23000000    17.18000000
   H     58.41000000    48.22000000    17.42000000
   H     57.48000000    48.00000000    16.25000000

Ca 1.00



