%chk=loop3.holoCaM.run91.water3.chk
%nprocshared=20
%mem=10GB
%nosave
#b3lyp/svp scf=(tight,noincore,xqc) Test 
#IOP(5/87=12) Density=Current Pop=(MK,readradii) iop(6/33=2) iop(6/42=6)

loop3.holoCaM.run91.water3 

   0  1 
   C     57.31000000    60.85000000    24.26000000
   C     58.70000000    60.90000000    24.86000000
   O     59.23000000    59.89000000    25.32000000
   H     56.65400000    61.52600000    24.80800000
   H     57.35400000    61.15500000    23.21500000
   H     56.92100000    59.83400000    24.32600000
   N     59.27000000    62.11000000    24.96000000
   C     60.56000000    62.41000000    25.54000000
   C     60.41000000    62.18000000    27.03000000
   O     59.60000000    62.79000000    27.72000000
   C     61.13000000    63.79000000    25.22000000
   C     62.39000000    64.26000000    25.93000000
   O     63.09000000    63.50000000    26.63000000
   O     62.69000000    65.47000000    25.84000000
   H     58.77000000    62.91000000    24.58000000
   H     61.23000000    61.70000000    25.06000000
   H     60.39000000    64.58000000    25.37000000
   H     61.34000000    63.67000000    24.16000000
   N     61.07000000    61.09000000    27.46000000
   C     60.79000000    60.41000000    28.70000000
   C     61.33000000    61.10000000    29.94000000
   O     60.77000000    60.87000000    31.01000000
   C     61.31000000    58.97000000    28.75000000
   C     60.65000000    58.18000000    27.62000000
   C     59.14000000    57.98000000    27.67000000
   C     58.66000000    57.09000000    26.52000000
   N     57.20000000    56.88000000    26.54000000
   H     61.54000000    60.55000000    26.74000000
   H     59.70000000    60.46000000    28.69000000
   H     61.00000000    58.45000000    29.65000000
   H     62.39000000    58.92000000    28.63000000
   H     61.11000000    57.19000000    27.59000000
   H     60.88000000    58.60000000    26.65000000
   H     58.59000000    58.92000000    27.61000000
   H     58.88000000    57.47000000    28.60000000
   H     58.96000000    56.07000000    26.73000000
   H     59.08000000    57.33000000    25.54000000
   H     56.85000000    56.24000000    27.23000000
   H     56.73000000    57.74000000    26.77000000
   H     56.95000000    56.53000000    25.62000000
   N     62.26000000    62.05000000    29.82000000
   C     62.75000000    62.83000000    30.94000000
   C     62.76000000    64.35000000    30.78000000
   O     62.91000000    65.07000000    31.76000000
   C     64.10000000    62.28000000    31.36000000
   C     65.17000000    62.59000000    30.33000000
   O     64.97000000    63.06000000    29.19000000
   O     66.34000000    62.41000000    30.74000000
   H     62.61000000    62.21000000    28.88000000
   H     62.09000000    62.72000000    31.80000000
   H     64.06000000    61.20000000    31.50000000
   H     64.38000000    62.69000000    32.34000000
   N     62.59000000    64.86000000    29.55000000
   C     62.41000000    66.27000000    29.30000000
   C     63.69000000    67.06000000    29.08000000
   O     63.63000000    68.28000000    29.23000000
   H     62.35000000    64.19000000    28.83000000
   H     61.80000000    66.74000000    30.07000000
   H     61.80000000    66.33000000    28.40000000
   N     64.81000000    66.40000000    28.77000000
   C     66.05000000    66.91000000    28.23000000
   C     65.97000000    67.57000000    26.87000000
   O     66.92000000    68.23000000    26.45000000
   C     67.14000000    65.84000000    28.31000000
   C     67.21000000    64.80000000    27.21000000
   N     68.43000000    64.38000000    26.84000000
   O     66.21000000    64.41000000    26.61000000
   H     64.66000000    65.41000000    28.88000000
   H     66.27000000    67.70000000    28.95000000
   H     67.07000000    65.30000000    29.26000000
   H     68.08000000    66.39000000    28.21000000
   H     69.22000000    64.76000000    27.34000000
   H     68.57000000    63.63000000    26.19000000
   N     64.90000000    67.22000000    26.14000000
   C     64.58000000    67.70000000    24.82000000
   C     65.11000000    66.83000000    23.69000000
   O     64.97000000    67.20000000    22.52000000
   H     64.30000000    66.52000000    26.55000000
   H     64.93000000    68.72000000    24.67000000
   H     63.50000000    67.71000000    24.69000000
   N     65.65000000    65.64000000    23.94000000
   C     66.12000000    64.66000000    22.98000000
   C     65.64000000    63.24000000    23.28000000
   O     65.33000000    62.94000000    24.43000000
   C     67.64000000    64.77000000    22.88000000
   C     68.30000000    66.13000000    22.78000000
   C     68.48000000    66.95000000    23.90000000
   C     68.67000000    66.65000000    21.54000000
   C     68.88000000    68.29000000    23.80000000
   C     69.21000000    67.93000000    21.41000000
   C     69.32000000    68.76000000    22.55000000
   O     69.77000000    70.04000000    22.35000000
   H     65.73000000    65.44000000    24.93000000
   H     65.71000000    64.94000000    22.01000000
   H     68.02000000    64.17000000    22.06000000
   H     67.97000000    64.26000000    23.78000000
   H     68.22000000    66.61000000    24.89000000
   H     68.39000000    66.01000000    20.71000000
   H     69.01000000    69.00000000    24.60000000
   H     69.54000000    68.31000000    20.45000000
   H     69.92000000    70.15000000    21.41000000
   N     65.59000000    62.43000000    22.23000000
   C     65.30000000    61.01000000    22.18000000
   C     66.47000000    60.25000000    21.59000000
   O     66.84000000    60.47000000    20.44000000
   C     63.92000000    60.69000000    21.60000000
   C     62.75000000    61.31000000    22.36000000
   C     63.82000000    59.19000000    21.34000000
   C     61.38000000    61.21000000    21.69000000
   H     65.76000000    62.91000000    21.36000000
   H     65.18000000    60.73000000    23.23000000
   H     63.85000000    61.15000000    20.62000000
   H     62.97000000    62.38000000    22.43000000
   H     62.61000000    60.80000000    23.31000000
   H     64.50000000    58.86000000    20.56000000
   H     64.03000000    58.65000000    22.26000000
   H     62.84000000    58.81000000    21.06000000
   H     60.69000000    61.56000000    22.46000000
   H     61.32000000    61.92000000    20.86000000
   H     61.08000000    60.19000000    21.43000000
   N     67.03000000    59.29000000    22.33000000
   C     67.94000000    58.25000000    21.87000000
   C     67.24000000    57.03000000    21.30000000
   O     66.09000000    56.79000000    21.64000000
   C     68.85000000    57.96000000    23.07000000
   O     68.15000000    57.23000000    24.05000000
   H     66.56000000    59.14000000    23.21000000
   H     68.59000000    58.65000000    21.09000000
   H     69.29000000    58.85000000    23.52000000
   H     69.66000000    57.30000000    22.79000000
   H     67.91000000    57.78000000    24.80000000
   N     67.97000000    56.16000000    20.58000000
   C     67.41000000    54.84000000    20.36000000
   C     67.02000000    54.10000000    21.62000000
   O     66.10000000    53.28000000    21.58000000
   C     68.45000000    54.07000000    19.55000000
   H     68.96000000    56.28000000    20.42000000
   H     66.56000000    54.97000000    19.69000000
   H     68.04000000    53.13000000    19.18000000
   H     68.84000000    54.68000000    18.74000000
   H     69.34000000    53.89000000    20.17000000
   N     67.72000000    54.35000000    22.72000000
   C     67.56000000    53.60000000    23.95000000
   C     66.24000000    53.97000000    24.59000000
   O     65.68000000    53.19000000    25.36000000
   C     68.79000000    53.70000000    24.85000000
   H     68.46000000    55.03000000    22.65000000
   H     67.43000000    52.56000000    23.63000000
   H     68.63000000    53.36000000    25.88000000
   H     69.61000000    53.11000000    24.44000000
   H     69.17000000    54.72000000    24.85000000
   N     65.73000000    55.16000000    24.25000000
   C     64.55000000    55.82000000    24.79000000
   C     63.33000000    55.62000000    23.90000000
   O     62.29000000    55.18000000    24.39000000
   C     64.96000000    57.28000000    24.95000000
   C     63.79000000    58.18000000    25.31000000
   C     64.21000000    59.61000000    25.62000000
   O     63.39000000    60.49000000    25.97000000
   O     65.43000000    59.86000000    25.54000000
   H     66.25000000    55.63000000    23.53000000
   H     64.41000000    55.39000000    25.78000000
   H     65.28000000    57.62000000    23.97000000
   H     65.79000000    57.42000000    25.65000000
   H     63.29000000    57.67000000    26.14000000
   H     62.95000000    58.18000000    24.61000000
   N     63.56000000    55.65000000    22.59000000
   C     62.58000000    55.23000000    21.60000000
   H     61.71400000    55.89100000    21.64400000
   H     63.02400000    55.27900000    20.60600000
   H     62.26700000    54.20700000    21.80900000
   H     64.49000000    55.92000000    22.29000000
  Ca     65.17000000    62.07000000    26.85000000
   O     67.45000000    61.79000000    28.28000000
   H     67.10000000    62.08000000    29.12000000
   H     68.39000000    61.93000000    28.35000000
   O     64.99000000    59.98000000    28.57000000
   H     64.68000000    59.09000000    28.37000000
   H     65.76000000    59.84000000    29.12000000
   O     67.86000000    62.01000000    25.31000000
   H     67.81000000    62.14000000    24.36000000
   H     68.39000000    61.22000000    25.41000000

Ca 1.00



