%chk=loop2.apoCaM-CA-Ng.Init295.run65.water4.chk
%nprocshared=20
%mem=10GB
%nosave
#b3lyp/svp scf=(tight,noincore,xqc) Test 
#IOP(5/87=12) Density=Current Pop=(MK,readradii) iop(6/33=2) iop(6/42=6)

loop2.apoCaM-CA-Ng.Init295.run65.water4 

   -2  1 
   C     93.86000000   100.91000000    34.25000000
   C     93.15000000   102.01000000    35.02000000
   O     92.08000000   102.38000000    34.53000000
   H     94.84500000   100.74100000    34.68500000
   H     93.27600000    99.99100000    34.30600000
   H     93.97000000   101.20800000    33.20700000
   N     93.61000000   102.57000000    36.14000000
   C     92.91000000   103.65000000    36.80000000
   C     91.71000000   103.16000000    37.61000000
   O     90.71000000   103.86000000    37.78000000
   C     93.98000000   104.26000000    37.71000000
   C     93.61000000   105.64000000    38.22000000
   O     93.54000000   105.83000000    39.45000000
   O     93.62000000   106.64000000    37.47000000
   H     94.46000000   102.24000000    36.58000000
   H     92.70000000   104.45000000    36.10000000
   H     94.83000000   104.43000000    37.05000000
   H     94.26000000   103.64000000    38.56000000
   N     91.75000000   101.86000000    37.90000000
   C     90.71000000   101.14000000    38.60000000
   C     91.42000000   100.08000000    39.43000000
   O     92.11000000    99.24000000    38.86000000
   C     89.76000000   100.49000000    37.60000000
   H     92.59000000   101.38000000    37.64000000
   H     90.20000000   101.83000000    39.28000000
   H     89.26000000   101.31000000    37.08000000
   H     90.29000000    99.76000000    36.98000000
   H     89.00000000    99.89000000    38.09000000
   N     91.21000000   100.03000000    40.75000000
   C     90.50000000   100.92000000    41.64000000
   C     91.03000000   100.63000000    43.04000000
   O     91.53000000    99.56000000    43.40000000
   C     89.00000000   100.65000000    41.59000000
   C     88.10000000   101.73000000    42.16000000
   O     88.55000000   102.67000000    42.85000000
   O     86.92000000   101.78000000    41.72000000
   H     91.56000000    99.18000000    41.16000000
   H     90.77000000   101.94000000    41.38000000
   H     88.81000000    99.70000000    42.10000000
   H     88.75000000   100.49000000    40.54000000
   N     91.24000000   101.76000000    43.72000000
   C     91.89000000   101.82000000    45.01000000
   C     93.38000000   101.58000000    44.86000000
   O     94.03000000   102.35000000    44.14000000
   H     90.87000000   102.56000000    43.24000000
   H     91.42000000   101.04000000    45.61000000
   H     91.75000000   102.79000000    45.49000000
   N     94.02000000   100.59000000    45.48000000
   C     93.62000000    99.80000000    46.62000000
   C     93.33000000    98.34000000    46.27000000
   O     93.33000000    97.46000000    47.13000000
   C     94.73000000    99.98000000    47.65000000
   C     94.20000000    99.62000000    49.03000000
   N     95.06000000    99.09000000    49.91000000
   O     93.03000000    99.61000000    49.38000000
   H     94.98000000   100.51000000    45.16000000
   H     92.73000000   100.20000000    47.10000000
   H     95.07000000   101.02000000    47.70000000
   H     95.61000000    99.40000000    47.36000000
   H     96.05000000    99.00000000    49.74000000
   H     94.64000000    98.77000000    50.77000000
   N     93.20000000    98.01000000    44.99000000
   C     92.85000000    96.68000000    44.51000000
   C     91.47000000    96.34000000    45.05000000
   O     91.36000000    95.24000000    45.57000000
   H     93.25000000    98.76000000    44.31000000
   H     93.63000000    95.99000000    44.81000000
   H     92.94000000    96.67000000    43.42000000
   N     90.50000000    97.26000000    45.01000000
   C     89.20000000    97.25000000    45.66000000
   C     88.00000000    97.14000000    44.72000000
   O     86.89000000    97.56000000    45.03000000
   C     89.16000000    98.46000000    46.59000000
   C     88.17000000    98.29000000    47.74000000
   O     90.43000000    98.67000000    47.17000000
   H     90.79000000    98.06000000    44.46000000
   H     89.13000000    96.43000000    46.37000000
   H     88.79000000    99.41000000    46.21000000
   H     90.35000000    99.41000000    47.78000000
   H     87.15000000    98.29000000    47.36000000
   H     88.23000000    97.30000000    48.19000000
   H     88.33000000    99.08000000    48.47000000
   N     88.28000000    96.56000000    43.55000000
   C     87.33000000    96.45000000    42.46000000
   C     86.03000000    95.82000000    42.92000000
   O     86.01000000    94.86000000    43.69000000
   C     87.92000000    95.79000000    41.22000000
   C     88.91000000    96.64000000    40.42000000
   C     88.47000000    94.41000000    41.56000000
   C     90.24000000    96.97000000    41.10000000
   H     89.26000000    96.34000000    43.42000000
   H     87.16000000    97.51000000    42.26000000
   H     87.11000000    95.59000000    40.52000000
   H     88.59000000    97.60000000    40.03000000
   H     89.10000000    96.11000000    39.49000000
   H     89.18000000    94.40000000    42.38000000
   H     87.67000000    93.69000000    41.75000000
   H     88.94000000    93.91000000    40.72000000
   H     90.09000000    97.80000000    41.79000000
   H     90.57000000    96.11000000    41.67000000
   H     91.08000000    97.18000000    40.43000000
   N     84.96000000    96.25000000    42.24000000
   C     83.63000000    95.69000000    42.20000000
   C     83.27000000    94.80000000    41.02000000
   O     82.92000000    95.29000000    39.95000000
   C     82.68000000    96.86000000    42.47000000
   C     83.02000000    97.76000000    43.64000000
   O     82.74000000    97.39000000    44.80000000
   O     83.54000000    98.87000000    43.38000000
   H     85.13000000    97.12000000    41.76000000
   H     83.53000000    95.01000000    43.05000000
   H     81.66000000    96.49000000    42.58000000
   H     82.67000000    97.37000000    41.51000000
   N     83.06000000    93.49000000    41.19000000
   C     82.37000000    92.70000000    40.19000000
   C     82.88000000    92.71000000    38.75000000
   O     84.04000000    92.41000000    38.50000000
   C     82.30000000    91.27000000    40.73000000
   C     81.53000000    90.28000000    39.89000000
   C     82.14000000    89.75000000    38.75000000
   C     80.24000000    89.91000000    40.28000000
   C     81.44000000    88.81000000    37.98000000
   C     79.50000000    89.10000000    39.41000000
   C     80.11000000    88.50000000    38.30000000
   H     83.24000000    92.99000000    42.04000000
   H     81.37000000    93.12000000    40.28000000
   H     81.81000000    91.28000000    41.70000000
   H     83.30000000    90.91000000    40.97000000
   H     83.16000000    90.04000000    38.56000000
   H     79.80000000    90.32000000    41.17000000
   H     81.88000000    88.32000000    37.12000000
   H     78.47000000    88.90000000    39.65000000
   H     79.51000000    87.76000000    37.78000000
   N     82.06000000    93.04000000    37.75000000
   C     82.56000000    93.12000000    36.39000000
   C     83.73000000    94.02000000    36.02000000
   O     84.32000000    93.92000000    34.95000000
   C     81.31000000    93.39000000    35.56000000
   C     80.22000000    92.68000000    36.35000000
   C     80.61000000    93.06000000    37.77000000
   H     82.90000000    92.10000000    36.17000000
   H     81.17000000    94.47000000    35.58000000
   H     81.29000000    92.95000000    34.56000000
   H     79.27000000    93.10000000    36.02000000
   H     80.32000000    91.61000000    36.17000000
   H     80.28000000    94.05000000    38.09000000
   H     80.23000000    92.33000000    38.48000000
   N     84.04000000    94.96000000    36.91000000
   C     85.03000000    96.01000000    36.80000000
   C     86.38000000    95.31000000    36.68000000
   O     87.30000000    95.80000000    36.02000000
   C     85.00000000    96.85000000    38.07000000
   C     86.02000000    97.99000000    38.11000000
   C     85.65000000    98.86000000    39.31000000
   O     85.46000000    98.38000000    40.45000000
   O     85.53000000   100.08000000    39.09000000
   H     83.45000000    95.15000000    37.72000000
   H     85.00000000    96.60000000    35.89000000
   H     85.05000000    96.23000000    38.96000000
   H     83.99000000    97.24000000    38.22000000
   H     85.96000000    98.56000000    37.19000000
   H     87.00000000    97.58000000    38.37000000
   N     86.46000000    94.12000000    37.28000000
   C     87.63000000    93.27000000    37.16000000
   H     88.45300000    93.70400000    37.72700000
   H     87.40200000    92.27900000    37.55200000
   H     87.91500000    93.18900000    36.11100000
   H     85.59000000    93.80000000    37.68000000
  Ca     84.76000000   100.53500000    41.70000000
   O     82.60000000    99.73500000    40.28000000
   H     81.70000000   100.07500000    40.30000000
   H     82.54000000    98.96500000    39.71000000
   O     83.89000000   102.79500000    40.49000000
   H     84.38000000   103.60500000    40.55000000
   H     83.00000000   103.02500000    40.78000000
   O     84.67000000   102.39500000    43.77000000
   H     85.14000000   103.22500000    43.72000000
   H     84.44000000   102.29500000    44.69000000
   O     86.15000000    99.83500000    43.73000000
   H     86.53000000   100.36500000    44.44000000
   H     86.22000000    98.93500000    44.04000000

Ca 1.00



