%chk=loop2.holoCaM-CaMKII.run54.water1.chk
%nprocshared=20
%mem=10GB
%nosave
#b3lyp/svp scf=(tight,noincore,xqc) Test 
#IOP(5/87=12) Density=Current Pop=(MK,readradii) iop(6/33=2) iop(6/42=6)

loop2.holoCaM-CaMKII.run54.water1 

   -2  1 
   C     11.52000000    60.82000000    26.52000000
   C     10.31000000    61.51000000    25.91000000
   O     10.33000000    62.74000000    25.93000000
   H     12.32700000    61.54300000    26.64100000
   H     11.25200000    60.40800000    27.49300000
   H     11.85000000    60.01500000    25.86300000
   N      9.32000000    60.79000000    25.38000000
   C      8.28000000    61.35000000    24.54000000
   C      7.33000000    62.24000000    25.34000000
   O      6.58000000    61.70000000    26.15000000
   C      7.51000000    60.20000000    23.90000000
   C      6.58000000    60.67000000    22.79000000
   O      6.45000000    61.86000000    22.40000000
   O      5.93000000    59.77000000    22.22000000
   H      9.35000000    59.79000000    25.34000000
   H      8.80000000    61.99000000    23.82000000
   H      6.86000000    59.66000000    24.58000000
   H      8.23000000    59.53000000    23.43000000
   N      7.15000000    63.45000000    24.82000000
   C      6.31000000    64.46000000    25.43000000
   C      4.97000000    64.67000000    24.74000000
   O      4.32000000    65.64000000    25.13000000
   C      7.23000000    65.67000000    25.48000000
   H      7.72000000    63.72000000    24.03000000
   H      6.12000000    64.25000000    26.49000000
   H      7.48000000    66.00000000    24.47000000
   H      6.66000000    66.44000000    25.99000000
   H      8.12000000    65.44000000    26.07000000
   N      4.63000000    63.86000000    23.73000000
   C      3.52000000    64.12000000    22.84000000
   C      2.80000000    62.95000000    22.19000000
   O      1.66000000    63.07000000    21.75000000
   C      4.04000000    65.06000000    21.75000000
   C      5.16000000    64.46000000    20.91000000
   O      4.98000000    63.50000000    20.14000000
   O      6.26000000    65.06000000    20.98000000
   H      5.27000000    63.13000000    23.45000000
   H      2.70000000    64.67000000    23.30000000
   H      4.24000000    66.04000000    22.17000000
   H      3.23000000    65.31000000    21.06000000
   N      3.38000000    61.75000000    22.22000000
   C      2.72000000    60.48000000    21.98000000
   C      2.94000000    59.90000000    20.60000000
   O      2.36000000    58.83000000    20.41000000
   H      4.34000000    61.60000000    22.51000000
   H      1.64000000    60.54000000    22.11000000
   H      3.16000000    59.73000000    22.64000000
   N      3.75000000    60.51000000    19.73000000
   C      3.87000000    60.05000000    18.36000000
   C      4.83000000    58.88000000    18.28000000
   O      4.60000000    58.03000000    17.41000000
   C      4.37000000    61.11000000    17.39000000
   C      5.70000000    61.76000000    17.73000000
   N      6.19000000    62.71000000    16.93000000
   O      6.49000000    61.35000000    18.58000000
   H      4.19000000    61.37000000    20.02000000
   H      2.85000000    59.72000000    18.14000000
   H      3.60000000    61.89000000    17.41000000
   H      4.38000000    60.71000000    16.38000000
   H      5.58000000    63.02000000    16.19000000
   H      7.07000000    63.17000000    17.14000000
   N      5.69000000    58.61000000    19.27000000
   C      6.69000000    57.57000000    19.14000000
   C      7.84000000    57.89000000    18.20000000
   O      8.57000000    57.00000000    17.77000000
   H      5.49000000    59.05000000    20.16000000
   H      6.32000000    56.58000000    18.86000000
   H      7.08000000    57.40000000    20.14000000
   N      8.06000000    59.17000000    17.90000000
   C      9.17000000    59.66000000    17.10000000
   C      9.83000000    60.83000000    17.81000000
   O      9.22000000    61.79000000    18.27000000
   C      8.54000000    60.13000000    15.79000000
   C      9.55000000    60.61000000    14.76000000
   O      7.69000000    59.13000000    15.29000000
   H      7.55000000    59.83000000    18.47000000
   H      9.88000000    58.88000000    16.82000000
   H      7.84000000    60.94000000    16.02000000
   H      7.69000000    59.14000000    14.33000000
   H      9.92000000    59.79000000    14.13000000
   H      9.03000000    61.36000000    14.16000000
   H     10.35000000    61.13000000    15.29000000
   N     11.17000000    60.80000000    17.77000000
   C     11.99000000    61.76000000    18.48000000
   C     11.93000000    63.16000000    17.89000000
   O     11.87000000    63.36000000    16.67000000
   C     13.43000000    61.25000000    18.53000000
   C     13.67000000    59.87000000    19.14000000
   C     14.36000000    62.19000000    19.29000000
   C     15.03000000    59.18000000    19.16000000
   H     11.79000000    60.11000000    17.39000000
   H     11.71000000    61.76000000    19.54000000
   H     13.75000000    61.27000000    17.49000000
   H     13.00000000    59.21000000    18.58000000
   H     13.19000000    59.84000000    20.12000000
   H     15.36000000    61.76000000    19.21000000
   H     14.46000000    63.14000000    18.77000000
   H     14.10000000    62.30000000    20.34000000
   H     15.69000000    59.48000000    18.35000000
   H     15.52000000    59.31000000    20.13000000
   H     14.94000000    58.09000000    19.13000000
   N     11.93000000    64.07000000    18.86000000
   C     12.18000000    65.49000000    18.67000000
   C     13.43000000    65.95000000    19.40000000
   O     14.00000000    65.27000000    20.26000000
   C     10.99000000    66.30000000    19.17000000
   C      9.66000000    65.90000000    18.56000000
   O      8.94000000    65.00000000    19.06000000
   O      9.21000000    66.63000000    17.65000000
   H     11.80000000    63.83000000    19.83000000
   H     12.28000000    65.60000000    17.59000000
   H     11.26000000    67.30000000    18.81000000
   H     10.99000000    66.24000000    20.26000000
   N     13.91000000    67.15000000    19.06000000
   C     15.23000000    67.59000000    19.45000000
   C     15.55000000    67.61000000    20.93000000
   O     16.54000000    66.99000000    21.32000000
   C     15.70000000    68.77000000    18.59000000
   C     17.18000000    69.05000000    18.74000000
   C     17.59000000    70.17000000    19.48000000
   C     18.15000000    68.22000000    18.19000000
   C     18.93000000    70.53000000    19.65000000
   C     19.51000000    68.49000000    18.40000000
   C     19.87000000    69.63000000    19.13000000
   H     13.51000000    67.73000000    18.33000000
   H     15.89000000    66.78000000    19.13000000
   H     15.14000000    69.66000000    18.88000000
   H     15.64000000    68.61000000    17.52000000
   H     16.86000000    70.82000000    19.94000000
   H     17.90000000    67.34000000    17.61000000
   H     19.22000000    71.44000000    20.16000000
   H     20.27000000    67.80000000    18.05000000
   H     20.92000000    69.83000000    19.28000000
   N     14.73000000    68.23000000    21.79000000
   C     14.85000000    68.20000000    23.24000000
   C     14.78000000    66.76000000    23.73000000
   O     15.49000000    66.42000000    24.67000000
   C     13.69000000    68.99000000    23.83000000
   C     13.20000000    69.90000000    22.71000000
   C     13.63000000    69.12000000    21.47000000
   H     15.79000000    68.65000000    23.56000000
   H     12.95000000    68.21000000    23.96000000
   H     13.99000000    69.58000000    24.70000000
   H     12.12000000    70.02000000    22.70000000
   H     13.73000000    70.85000000    22.63000000
   H     12.76000000    68.57000000    21.11000000
   H     13.92000000    69.81000000    20.68000000
   N     14.02000000    65.86000000    23.10000000
   C     13.83000000    64.51000000    23.59000000
   C     15.08000000    63.68000000    23.37000000
   O     15.47000000    62.87000000    24.22000000
   C     12.64000000    63.88000000    22.86000000
   C     11.28000000    64.57000000    22.98000000
   C     10.19000000    63.80000000    22.26000000
   O      8.99000000    64.02000000    22.54000000
   O     10.43000000    62.98000000    21.35000000
   H     13.57000000    66.08000000    22.22000000
   H     13.68000000    64.50000000    24.67000000
   H     12.50000000    62.88000000    23.29000000
   H     12.86000000    63.64000000    21.82000000
   H     11.34000000    65.56000000    22.53000000
   H     11.04000000    64.87000000    24.00000000
   N     15.81000000    63.91000000    22.28000000
   C     17.20000000    63.54000000    22.15000000
   H     17.79800000    64.12600000    22.84800000
   H     17.31700000    62.48000000    22.37300000
   H     17.53500000    63.73700000    21.13200000
   H     15.43000000    64.57000000    21.62000000
  Ca      7.66000000    62.99000000    20.37000000
   O      9.22000000    60.83000000    21.16000000
   H      9.91000000    61.44000000    21.41000000
   H      9.55000000    59.97000000    21.44000000

Ca 1.00



