%chk=loop2.apoCaM-CA-Ng.Init293.run43.water7.chk
%nprocshared=20
%mem=10GB
%nosave
#b3lyp/svp scf=(tight,noincore,xqc) Test 
#IOP(5/87=12) Density=Current Pop=(MK,readradii) iop(6/33=2) iop(6/42=6)

loop2.apoCaM-CA-Ng.Init293.run43.water7 

   -2  1 
   C     51.21000000    80.83000000    21.37000000
   C     50.89000000    81.03000000    22.84000000
   O     51.21000000    82.10000000    23.35000000
   H     52.25000000    80.52000000    21.26400000
   H     50.55800000    80.06000000    20.95700000
   H     51.05400000    81.76600000    20.83300000
   N     50.48000000    79.93000000    23.49000000
   C     50.27000000    79.80000000    24.92000000
   C     51.47000000    80.29000000    25.71000000
   O     51.24000000    80.72000000    26.84000000
   C     50.06000000    78.31000000    25.16000000
   C     49.65000000    78.07000000    26.61000000
   O     48.67000000    78.72000000    27.03000000
   O     50.22000000    77.23000000    27.33000000
   H     50.42000000    79.07000000    22.97000000
   H     49.34000000    80.28000000    25.21000000
   H     51.04000000    77.88000000    24.95000000
   H     49.28000000    77.92000000    24.51000000
   N     52.70000000    80.15000000    25.19000000
   C     53.94000000    80.47000000    25.86000000
   C     53.75000000    81.80000000    26.58000000
   O     54.19000000    81.95000000    27.72000000
   C     54.34000000    79.26000000    26.71000000
   H     52.77000000    79.66000000    24.32000000
   H     54.72000000    80.61000000    25.11000000
   H     55.33000000    79.53000000    27.07000000
   H     53.59000000    79.09000000    27.48000000
   H     54.49000000    78.40000000    26.06000000
   N     53.29000000    82.87000000    25.93000000
   C     53.16000000    84.26000000    26.30000000
   C     52.14000000    84.63000000    27.37000000
   O     52.28000000    85.74000000    27.87000000
   C     54.57000000    84.83000000    26.44000000
   C     55.32000000    84.64000000    25.13000000
   O     56.51000000    84.27000000    25.25000000
   O     54.77000000    84.90000000    24.04000000
   H     52.92000000    82.67000000    25.01000000
   H     52.67000000    84.72000000    25.45000000
   H     55.05000000    84.35000000    27.29000000
   H     54.45000000    85.90000000    26.64000000
   N     51.16000000    83.78000000    27.70000000
   C     50.23000000    83.99000000    28.79000000
   C     49.21000000    85.07000000    28.45000000
   O     48.95000000    85.26000000    27.27000000
   H     51.13000000    82.89000000    27.22000000
   H     50.80000000    84.25000000    29.68000000
   H     49.75000000    83.04000000    29.02000000
   N     48.67000000    85.78000000    29.44000000
   C     47.85000000    86.96000000    29.28000000
   C     46.60000000    86.77000000    28.42000000
   O     46.35000000    87.48000000    27.45000000
   C     48.79000000    88.05000000    28.76000000
   C     49.95000000    88.24000000    29.72000000
   N     51.18000000    87.96000000    29.28000000
   O     49.83000000    88.82000000    30.80000000
   H     49.02000000    85.48000000    30.34000000
   H     47.39000000    87.16000000    30.25000000
   H     48.24000000    88.99000000    28.69000000
   H     49.18000000    87.75000000    27.79000000
   H     51.39000000    87.42000000    28.46000000
   H     52.01000000    88.12000000    29.84000000
   N     45.81000000    85.73000000    28.71000000
   C     44.59000000    85.40000000    28.01000000
   C     44.84000000    84.57000000    26.76000000
   O     43.90000000    83.86000000    26.41000000
   H     46.05000000    85.11000000    29.48000000
   H     44.04000000    86.32000000    27.79000000
   H     43.96000000    84.88000000    28.74000000
   N     45.97000000    84.67000000    26.06000000
   C     46.31000000    83.81000000    24.95000000
   C     46.31000000    84.60000000    23.65000000
   O     46.86000000    85.70000000    23.60000000
   C     47.63000000    83.08000000    25.17000000
   C     47.54000000    82.20000000    26.41000000
   O     47.68000000    82.16000000    24.10000000
   H     46.74000000    85.19000000    26.46000000
   H     45.50000000    83.07000000    24.88000000
   H     48.49000000    83.76000000    25.17000000
   H     48.19000000    82.51000000    23.37000000
   H     48.38000000    81.51000000    26.51000000
   H     47.52000000    82.95000000    27.21000000
   H     46.57000000    81.70000000    26.40000000
   N     45.96000000    83.98000000    22.52000000
   C     46.44000000    84.44000000    21.23000000
   C     47.95000000    84.39000000    21.09000000
   O     48.64000000    84.03000000    22.04000000
   C     45.63000000    83.77000000    20.12000000
   C     45.91000000    82.28000000    19.89000000
   C     44.16000000    84.10000000    20.36000000
   C     45.05000000    81.50000000    18.90000000
   H     45.33000000    83.19000000    22.60000000
   H     46.19000000    85.50000000    21.17000000
   H     45.90000000    84.24000000    19.18000000
   H     45.82000000    81.78000000    20.85000000
   H     46.96000000    82.21000000    19.63000000
   H     43.99000000    85.17000000    20.50000000
   H     43.58000000    83.85000000    19.47000000
   H     43.73000000    83.65000000    21.26000000
   H     44.00000000    81.60000000    19.17000000
   H     45.12000000    81.95000000    17.91000000
   H     45.38000000    80.46000000    18.88000000
   N     48.55000000    84.76000000    19.96000000
   C     49.99000000    84.73000000    19.77000000
   C     50.63000000    85.99000000    20.34000000
   O     51.37000000    86.72000000    19.68000000
   C     50.35000000    84.45000000    18.31000000
   C     51.81000000    84.13000000    17.99000000
   O     52.15000000    84.45000000    16.84000000
   O     52.50000000    83.61000000    18.89000000
   H     47.98000000    85.14000000    19.22000000
   H     50.38000000    83.93000000    20.39000000
   H     49.98000000    85.31000000    17.75000000
   H     49.82000000    83.56000000    18.01000000
   N     50.30000000    86.36000000    21.58000000
   C     51.13000000    87.22000000    22.40000000
   C     50.99000000    88.72000000    22.18000000
   O     52.01000000    89.38000000    22.30000000
   C     50.92000000    86.80000000    23.85000000
   C     51.40000000    87.75000000    24.93000000
   C     50.53000000    88.49000000    25.73000000
   C     52.77000000    87.95000000    25.18000000
   C     50.95000000    89.50000000    26.60000000
   C     53.26000000    88.83000000    26.15000000
   C     52.33000000    89.62000000    26.84000000
   H     49.57000000    85.88000000    22.09000000
   H     52.16000000    87.00000000    22.13000000
   H     51.42000000    85.84000000    24.00000000
   H     49.85000000    86.62000000    23.94000000
   H     49.47000000    88.36000000    25.59000000
   H     53.45000000    87.34000000    24.61000000
   H     50.23000000    90.19000000    27.02000000
   H     54.32000000    88.90000000    26.32000000
   H     52.72000000    90.41000000    27.46000000
   N     49.79000000    89.27000000    21.96000000
   C     48.49000000    88.68000000    22.17000000
   C     47.81000000    88.43000000    20.83000000
   O     46.59000000    88.50000000    20.76000000
   C     47.70000000    89.70000000    22.98000000
   C     48.25000000    91.00000000    22.40000000
   C     49.68000000    90.72000000    21.95000000
   H     48.48000000    87.76000000    22.75000000
   H     46.61000000    89.68000000    22.87000000
   H     47.99000000    89.59000000    24.02000000
   H     47.59000000    91.34000000    21.60000000
   H     48.27000000    91.76000000    23.18000000
   H     49.83000000    91.12000000    20.95000000
   H     50.30000000    91.30000000    22.63000000
   N     48.50000000    88.16000000    19.72000000
   C     48.04000000    88.49000000    18.38000000
   C     47.08000000    87.45000000    17.81000000
   O     47.22000000    86.25000000    17.99000000
   C     49.20000000    88.74000000    17.42000000
   C     49.93000000    90.01000000    17.85000000
   C     50.81000000    90.61000000    16.77000000
   O     50.21000000    91.38000000    15.99000000
   O     52.03000000    90.32000000    16.75000000
   H     49.45000000    87.82000000    19.71000000
   H     47.46000000    89.40000000    18.30000000
   H     48.79000000    88.92000000    16.42000000
   H     49.85000000    87.87000000    17.40000000
   H     50.42000000    89.90000000    18.82000000
   H     49.17000000    90.76000000    18.09000000
   N     46.12000000    87.95000000    17.03000000
   C     45.11000000    87.12000000    16.40000000
   H     44.24000000    87.73000000    16.15500000
   H     45.51500000    86.68400000    15.48700000
   H     44.81500000    86.32400000    17.08400000
   H     45.94000000    88.95000000    17.10000000
  Ca     55.11000000    85.27000000    21.54000000
   O     55.21000000    82.50000000    21.68000000
   H     55.79000000    82.00000000    22.25000000
   H     55.08000000    81.93000000    20.92000000
   O     56.92000000    86.80000000    19.91000000
   H     56.91000000    87.61000000    19.40000000
   H     57.84000000    86.68000000    20.14000000
   O     55.22000000    84.59000000    19.10000000
   H     55.65000000    85.33000000    18.67000000
   H     54.41000000    84.47000000    18.61000000
   O     58.00000000    84.36000000    21.03000000
   H     58.06000000    84.08000000    21.94000000
   H     58.80000000    84.86000000    20.87000000
   O     52.73000000    84.06000000    21.49000000
   H     52.70000000    83.54000000    20.68000000
   H     52.12000000    83.62000000    22.08000000
   O     56.25000000    87.31000000    22.76000000
   H     55.82000000    88.16000000    22.69000000
   H     57.02000000    87.48000000    23.30000000
   O     53.85000000    87.38000000    20.46000000
   H     53.01000000    87.26000000    20.02000000
   H     53.98000000    88.32000000    20.49000000

Ca 1.00



