%chk=loop2.holoCaM.run19.water1.chk
%nprocshared=20
%mem=10GB
%nosave
#b3lyp/svp scf=(tight,noincore,xqc) Test 
#IOP(5/87=12) Density=Current Pop=(MK,readradii) iop(6/33=2) iop(6/42=6)

loop2.holoCaM.run19.water1 

   -2  1 
   C     64.21000000    41.79000000    -4.07000000
   C     62.92000000    42.35000000    -4.63000000
   O     61.95000000    42.39000000    -3.87000000
   H     64.96400000    42.57700000    -4.03900000
   H     64.03600000    41.41500000    -3.06200000
   H     64.56000000    40.97700000    -4.70600000
   N     62.81000000    42.63000000    -5.93000000
   C     61.59000000    42.86000000    -6.69000000
   C     60.65000000    41.67000000    -6.67000000
   O     61.07000000    40.59000000    -7.08000000
   C     62.06000000    43.33000000    -8.07000000
   C     60.90000000    43.59000000    -9.02000000
   O     59.78000000    43.96000000    -8.58000000
   O     61.05000000    43.26000000   -10.21000000
   H     63.65000000    42.68000000    -6.48000000
   H     61.07000000    43.69000000    -6.21000000
   H     62.58000000    42.49000000    -8.54000000
   H     62.67000000    44.21000000    -7.89000000
   N     59.49000000    41.73000000    -6.01000000
   C     58.66000000    40.61000000    -5.62000000
   C     57.53000000    40.22000000    -6.56000000
   O     57.25000000    39.10000000    -6.97000000
   C     57.97000000    41.01000000    -4.31000000
   H     59.31000000    42.65000000    -5.62000000
   H     59.32000000    39.78000000    -5.38000000
   H     57.39000000    40.19000000    -3.90000000
   H     58.64000000    41.32000000    -3.51000000
   H     57.31000000    41.85000000    -4.50000000
   N     56.81000000    41.26000000    -6.98000000
   C     55.99000000    41.25000000    -8.18000000
   C     56.72000000    41.08000000    -9.50000000
   O     56.11000000    40.75000000   -10.51000000
   C     54.94000000    42.36000000    -8.21000000
   C     55.37000000    43.74000000    -7.75000000
   O     54.82000000    44.26000000    -6.75000000
   O     56.43000000    44.18000000    -8.24000000
   H     57.05000000    42.19000000    -6.65000000
   H     55.33000000    40.38000000    -8.10000000
   H     54.04000000    42.09000000    -7.66000000
   H     54.54000000    42.46000000    -9.22000000
   N     58.06000000    41.10000000    -9.53000000
   C     58.89000000    40.93000000   -10.70000000
   C     58.66000000    41.94000000   -11.82000000
   O     58.94000000    41.72000000   -12.99000000
   H     58.54000000    41.39000000    -8.69000000
   H     58.66000000    39.93000000   -11.07000000
   H     59.89000000    40.88000000   -10.27000000
   N     58.09000000    43.11000000   -11.51000000
   C     57.70000000    44.13000000   -12.47000000
   C     58.88000000    44.99000000   -12.91000000
   O     58.74000000    46.00000000   -13.59000000
   C     56.55000000    44.92000000   -11.87000000
   C     56.99000000    45.86000000   -10.76000000
   N     56.18000000    46.89000000   -10.49000000
   O     58.06000000    45.78000000   -10.16000000
   H     57.86000000    43.25000000   -10.54000000
   H     57.25000000    43.63000000   -13.33000000
   H     55.75000000    44.22000000   -11.62000000
   H     56.04000000    45.48000000   -12.65000000
   H     55.39000000    47.14000000   -11.08000000
   H     56.61000000    47.62000000    -9.95000000
   N     60.12000000    44.66000000   -12.55000000
   C     61.31000000    45.40000000   -12.92000000
   C     61.80000000    46.55000000   -12.06000000
   O     62.99000000    46.86000000   -12.13000000
   H     60.30000000    43.98000000   -11.83000000
   H     61.18000000    45.69000000   -13.96000000
   H     62.13000000    44.70000000   -13.11000000
   N     60.99000000    47.13000000   -11.17000000
   C     61.38000000    48.27000000   -10.37000000
   C     61.15000000    48.09000000    -8.87000000
   O     60.35000000    47.26000000    -8.45000000
   C     60.69000000    49.55000000   -10.84000000
   C     60.69000000    49.62000000   -12.36000000
   O     59.34000000    49.63000000   -10.45000000
   H     60.11000000    46.64000000   -11.09000000
   H     62.47000000    48.35000000   -10.40000000
   H     61.24000000    50.42000000   -10.47000000
   H     58.84000000    50.05000000   -11.16000000
   H     61.64000000    49.23000000   -12.73000000
   H     59.87000000    49.02000000   -12.75000000
   H     60.61000000    50.65000000   -12.71000000
   N     61.89000000    48.81000000    -8.03000000
   C     61.87000000    48.72000000    -6.59000000
   C     60.82000000    49.58000000    -5.90000000
   O     60.95000000    50.79000000    -5.79000000
   C     63.27000000    48.97000000    -6.04000000
   C     64.28000000    47.94000000    -6.53000000
   C     63.26000000    48.82000000    -4.52000000
   C     65.74000000    48.20000000    -6.18000000
   H     62.58000000    49.43000000    -8.44000000
   H     61.65000000    47.68000000    -6.33000000
   H     63.61000000    49.98000000    -6.27000000
   H     64.10000000    47.98000000    -7.61000000
   H     64.02000000    46.96000000    -6.14000000
   H     63.18000000    47.75000000    -4.31000000
   H     64.12000000    49.22000000    -3.99000000
   H     62.34000000    49.13000000    -4.04000000
   H     66.39000000    47.38000000    -6.49000000
   H     66.02000000    49.17000000    -6.59000000
   H     65.90000000    48.38000000    -5.12000000
   N     59.84000000    48.93000000    -5.25000000
   C     58.86000000    49.49000000    -4.33000000
   C     59.33000000    49.64000000    -2.89000000
   O     60.29000000    48.97000000    -2.51000000
   C     57.55000000    48.71000000    -4.28000000
   C     57.00000000    48.36000000    -5.66000000
   O     56.77000000    47.16000000    -5.94000000
   O     56.78000000    49.32000000    -6.42000000
   H     59.76000000    47.94000000    -5.39000000
   H     58.66000000    50.51000000    -4.64000000
   H     56.85000000    49.44000000    -3.87000000
   H     57.70000000    47.80000000    -3.71000000
   N     58.69000000    50.54000000    -2.13000000
   C     59.09000000    50.80000000    -0.77000000
   C     59.32000000    49.58000000     0.12000000
   O     60.38000000    49.44000000     0.72000000
   C     58.22000000    51.83000000    -0.05000000
   C     58.94000000    52.21000000     1.22000000
   C     60.09000000    53.00000000     1.29000000
   C     58.44000000    51.81000000     2.47000000
   C     60.71000000    53.37000000     2.49000000
   C     59.06000000    52.09000000     3.69000000
   C     60.23000000    52.85000000     3.70000000
   H     58.04000000    51.15000000    -2.60000000
   H     60.09000000    51.22000000    -0.78000000
   H     57.21000000    51.46000000     0.13000000
   H     58.07000000    52.71000000    -0.68000000
   H     60.55000000    53.26000000     0.34000000
   H     57.51000000    51.26000000     2.53000000
   H     61.66000000    53.87000000     2.51000000
   H     58.61000000    51.85000000     4.64000000
   H     60.67000000    53.02000000     4.67000000
   N     58.43000000    48.58000000     0.10000000
   C     58.61000000    47.29000000     0.75000000
   C     59.74000000    46.42000000     0.21000000
   O     60.42000000    45.76000000     0.99000000
   C     57.28000000    46.56000000     0.67000000
   C     56.53000000    47.16000000    -0.52000000
   C     57.06000000    48.58000000    -0.36000000
   H     58.80000000    47.56000000     1.79000000
   H     57.33000000    45.48000000     0.57000000
   H     56.82000000    46.80000000     1.63000000
   H     56.99000000    46.80000000    -1.43000000
   H     55.46000000    47.00000000    -0.40000000
   H     56.92000000    49.14000000    -1.28000000
   H     56.62000000    49.13000000     0.48000000
   N     60.15000000    46.62000000    -1.05000000
   C     61.30000000    45.88000000    -1.54000000
   C     62.60000000    46.61000000    -1.23000000
   O     63.63000000    45.99000000    -0.99000000
   C     61.01000000    45.69000000    -3.02000000
   C     59.59000000    45.24000000    -3.33000000
   C     59.24000000    45.25000000    -4.81000000
   O     59.86000000    46.06000000    -5.53000000
   O     58.41000000    44.47000000    -5.34000000
   H     59.80000000    47.38000000    -1.61000000
   H     61.28000000    44.88000000    -1.12000000
   H     61.75000000    45.01000000    -3.44000000
   H     61.19000000    46.61000000    -3.58000000
   H     58.87000000    45.94000000    -2.93000000
   H     59.39000000    44.24000000    -2.94000000
   N     62.53000000    47.94000000    -1.13000000
   C     63.62000000    48.67000000    -0.53000000
   H     64.45300000    48.71900000    -1.23100000
   H     63.29100000    49.68000000    -0.28600000
   H     63.94100000    48.16200000     0.38000000
   H     61.74000000    48.42000000    -1.54000000
  Ca     58.32000000    45.77000000    -7.62100000
   O     57.78000000    48.30000000    -8.58100000
   H     58.36000000    48.74000000    -9.20100000
   H     57.44000000    49.00000000    -8.03100000

Ca 1.00



