%chk=loop3.apoCaM-CA-Ng.Init31.run68.water6.chk
%nprocshared=20
%mem=10GB
%nosave
#b3lyp/svp scf=(tight,noincore,xqc) Test 
#IOP(5/87=12) Density=Current Pop=(MK,readradii) iop(6/33=2) iop(6/42=6)

loop3.apoCaM-CA-Ng.Init31.run68.water6 

   0  1 
   C    106.93000000    68.77000000    34.64000000
   C    105.79000000    68.59000000    33.65000000
   O    104.79000000    67.91000000    33.88000000
   H    107.75400000    69.29100000    34.15300000
   H    106.58300000    69.35500000    35.49200000
   H    107.27100000    67.79300000    34.98400000
   N    105.98000000    69.10000000    32.43000000
   C    105.18000000    68.71000000    31.28000000
   C    105.77000000    67.48000000    30.60000000
   O    106.81000000    67.01000000    31.05000000
   C    104.96000000    69.85000000    30.29000000
   C    106.23000000    70.30000000    29.59000000
   O    106.56000000    69.81000000    28.49000000
   O    106.90000000    71.21000000    30.13000000
   H    106.88000000    69.55000000    32.32000000
   H    104.23000000    68.35000000    31.67000000
   H    104.49000000    70.70000000    30.79000000
   H    104.36000000    69.45000000    29.47000000
   N    105.01000000    66.85000000    29.71000000
   C    105.53000000    65.90000000    28.75000000
   C    105.65000000    64.51000000    29.36000000
   O    106.54000000    63.76000000    28.96000000
   C    104.64000000    65.96000000    27.51000000
   C    105.26000000    65.36000000    26.26000000
   C    104.39000000    65.67000000    25.05000000
   C    105.12000000    65.11000000    23.84000000
   N    104.77000000    65.68000000    22.53000000
   H    104.10000000    67.17000000    29.43000000
   H    106.52000000    66.15000000    28.35000000
   H    104.47000000    67.00000000    27.22000000
   H    103.72000000    65.39000000    27.68000000
   H    105.48000000    64.29000000    26.34000000
   H    106.24000000    65.85000000    26.23000000
   H    104.32000000    66.75000000    24.94000000
   H    103.42000000    65.17000000    25.10000000
   H    104.81000000    64.08000000    23.68000000
   H    106.20000000    65.19000000    24.02000000
   H    104.94000000    64.97000000    21.84000000
   H    103.80000000    65.95000000    22.52000000
   H    105.38000000    66.47000000    22.37000000
   N    104.94000000    64.23000000    30.45000000
   C    105.02000000    63.06000000    31.31000000
   C    104.41000000    61.82000000    30.67000000
   O    103.35000000    61.38000000    31.10000000
   C    104.63000000    63.22000000    32.77000000
   C    103.37000000    64.04000000    33.00000000
   O    103.09000000    64.39000000    34.17000000
   O    102.54000000    64.28000000    32.10000000
   H    104.27000000    64.96000000    30.65000000
   H    106.09000000    62.86000000    31.37000000
   H    105.43000000    63.57000000    33.42000000
   H    104.46000000    62.24000000    33.24000000
   N    105.02000000    61.33000000    29.59000000
   C    104.59000000    60.18000000    28.81000000
   C    103.24000000    60.26000000    28.12000000
   O    102.51000000    61.22000000    28.35000000
   H    105.90000000    61.76000000    29.37000000
   H    104.61000000    59.27000000    29.41000000
   H    105.34000000    60.00000000    28.04000000
   N    102.88000000    59.30000000    27.26000000
   C    103.38000000    57.94000000    27.25000000
   C    103.05000000    56.99000000    28.39000000
   O    102.06000000    57.14000000    29.11000000
   C    102.93000000    57.43000000    25.88000000
   C    101.52000000    56.87000000    25.99000000
   N    100.54000000    57.73000000    25.69000000
   O    101.32000000    55.68000000    26.18000000
   H    102.03000000    59.44000000    26.73000000
   H    104.46000000    58.02000000    27.17000000
   H    103.56000000    56.57000000    25.66000000
   H    103.04000000    58.13000000    25.05000000
   H    100.80000000    58.68000000    25.44000000
   H     99.61000000    57.36000000    25.73000000
   N    103.77000000    55.90000000    28.67000000
   C    105.02000000    55.49000000    28.06000000
   C    106.22000000    56.32000000    28.51000000
   O    106.71000000    57.18000000    27.78000000
   H    103.54000000    55.48000000    29.55000000
   H    104.88000000    55.54000000    26.98000000
   H    105.15000000    54.46000000    28.38000000
   N    106.60000000    56.20000000    29.78000000
   C    107.78000000    56.77000000    30.40000000
   C    109.01000000    56.15000000    29.75000000
   O    109.03000000    54.95000000    29.47000000
   C    107.72000000    56.51000000    31.90000000
   C    106.44000000    57.01000000    32.53000000
   C    105.63000000    58.05000000    32.05000000
   C    106.08000000    56.32000000    33.69000000
   C    104.44000000    58.40000000    32.68000000
   C    104.89000000    56.69000000    34.34000000
   C    104.11000000    57.78000000    33.90000000
   O    102.92000000    58.07000000    34.50000000
   H    106.01000000    55.62000000    30.37000000
   H    107.84000000    57.83000000    30.15000000
   H    108.58000000    56.90000000    32.44000000
   H    107.75000000    55.43000000    32.05000000
   H    105.93000000    58.52000000    31.13000000
   H    106.53000000    55.47000000    34.18000000
   H    103.83000000    59.16000000    32.21000000
   H    104.64000000    56.09000000    35.20000000
   H    102.78000000    57.38000000    35.16000000
   N    109.97000000    57.01000000    29.40000000
   C    111.15000000    56.70000000    28.63000000
   C    112.44000000    57.28000000    29.19000000
   O    113.43000000    57.23000000    28.46000000
   C    111.01000000    57.13000000    27.17000000
   C    109.82000000    56.47000000    26.49000000
   C    111.03000000    58.64000000    26.95000000
   C    109.74000000    56.47000000    24.96000000
   H    109.86000000    57.96000000    29.70000000
   H    111.27000000    55.61000000    28.54000000
   H    111.81000000    56.70000000    26.57000000
   H    108.85000000    56.81000000    26.86000000
   H    109.90000000    55.45000000    26.84000000
   H    112.04000000    58.97000000    27.21000000
   H    110.81000000    58.73000000    25.88000000
   H    110.30000000    59.27000000    27.45000000
   H    108.76000000    56.03000000    24.81000000
   H    109.62000000    57.49000000    24.59000000
   H    110.62000000    56.10000000    24.44000000
   N    112.58000000    57.81000000    30.41000000
   C    113.85000000    58.22000000    30.98000000
   C    114.03000000    59.70000000    30.72000000
   O    115.14000000    60.20000000    30.90000000
   C    113.88000000    57.78000000    32.44000000
   O    113.61000000    58.85000000    33.31000000
   H    111.73000000    57.88000000    30.95000000
   H    114.60000000    57.70000000    30.38000000
   H    114.87000000    57.38000000    32.66000000
   H    113.09000000    57.07000000    32.69000000
   H    112.71000000    59.20000000    33.22000000
   N    112.99000000    60.46000000    30.37000000
   C    113.07000000    61.86000000    29.99000000
   C    112.93000000    62.81000000    31.17000000
   O    112.22000000    63.81000000    31.15000000
   C    112.03000000    62.16000000    28.90000000
   H    112.07000000    60.08000000    30.52000000
   H    114.07000000    62.05000000    29.60000000
   H    112.09000000    63.22000000    28.65000000
   H    112.27000000    61.49000000    28.07000000
   H    111.02000000    61.95000000    29.24000000
   N    113.55000000    62.48000000    32.30000000
   C    113.32000000    63.06000000    33.61000000
   C    111.90000000    63.01000000    34.17000000
   O    111.59000000    63.71000000    35.12000000
   C    114.03000000    64.40000000    33.76000000
   H    114.23000000    61.74000000    32.19000000
   H    113.81000000    62.38000000    34.31000000
   H    115.07000000    64.30000000    33.47000000
   H    113.76000000    65.17000000    33.04000000
   H    113.83000000    64.90000000    34.71000000
   N    111.06000000    62.12000000    33.64000000
   C    109.72000000    61.90000000    34.16000000
   C    109.78000000    60.95000000    35.34000000
   O    109.25000000    61.39000000    36.36000000
   C    108.73000000    61.51000000    33.06000000
   C    108.74000000    60.03000000    32.66000000
   C    110.05000000    59.60000000    32.01000000
   O    111.09000000    59.47000000    32.68000000
   O    110.09000000    59.34000000    30.79000000
   H    111.24000000    61.67000000    32.75000000
   H    109.42000000    62.86000000    34.57000000
   H    108.94000000    62.15000000    32.21000000
   H    107.75000000    61.84000000    33.39000000
   H    107.94000000    59.84000000    31.94000000
   H    108.56000000    59.59000000    33.64000000
   N    110.54000000    59.85000000    35.36000000
   C    110.72000000    58.97000000    36.49000000
   H    111.45900000    59.39700000    37.16800000
   H    109.77200000    58.85200000    37.01400000
   H    111.06700000    57.99700000    36.14200000
   H    111.05000000    59.65000000    34.51000000
  Ca    100.69900000    65.50000000    34.16000000
   O    102.03900000    66.94000000    32.12000000
   H    102.03900000    67.40000000    31.28000000
   H    102.42900000    66.09000000    31.92000000
   O    100.74900000    62.65000000    34.29000000
   H    100.21900000    61.98000000    33.86000000
   H    101.64900000    62.45000000    34.02000000
   O    102.45900000    67.02000000    35.37000000
   H    103.14900000    67.17000000    34.73000000
   H    102.51900000    67.77000000    35.97000000
   O     99.96900000    64.93000000    31.40000000
   H    100.17900000    64.34000000    30.69000000
   H     99.56900000    65.69000000    30.97000000
   O     98.07000000    64.57000000    34.39000000
   H     97.45000000    63.85000000    34.27000000
   H     97.80000000    65.22000000    33.74000000
   O    100.64900000    64.23000000    36.58000000
   H    101.12900000    64.03000000    37.38000000
   H     99.95900000    63.56000000    36.54000000

Ca 1.00



