%chk=loop4.apoCaM-CA-Ng.Init293.run83.water3.chk
%nprocshared=20
%mem=10GB
%nosave
#b3lyp/svp scf=(tight,noincore,xqc) Test 
#IOP(5/87=12) Density=Current Pop=(MK,readradii) iop(6/33=2) iop(6/42=6)

loop4.apoCaM-CA-Ng.Init293.run83.water3 

   -3  1 
   C     55.44000000    82.13000000    53.08000000
   C     54.28000000    81.80000000    54.02000000
   O     53.15000000    82.15000000    53.70000000
   H     56.32500000    81.57300000    53.38700000
   H     55.17200000    81.85300000    52.06000000
   H     55.65100000    83.19900000    53.12300000
   N     54.55000000    81.28000000    55.22000000
   C     53.65000000    81.09000000    56.34000000
   C     52.47000000    80.16000000    56.05000000
   O     51.70000000    79.85000000    56.95000000
   C     53.28000000    82.41000000    57.01000000
   C     52.19000000    83.25000000    56.36000000
   O     51.31000000    82.70000000    55.67000000
   O     52.26000000    84.49000000    56.47000000
   H     55.55000000    81.26000000    55.40000000
   H     54.25000000    80.54000000    57.06000000
   H     54.18000000    83.02000000    57.15000000
   H     52.83000000    82.27000000    57.99000000
   N     52.31000000    79.71000000    54.80000000
   C     51.24000000    78.81000000    54.41000000
   C     49.87000000    79.45000000    54.27000000
   O     49.79000000    80.65000000    54.03000000
   C     51.51000000    78.12000000    53.08000000
   C     52.64000000    77.10000000    53.20000000
   C     51.73000000    79.01000000    51.85000000
   C     52.83000000    76.20000000    51.99000000
   H     52.92000000    80.05000000    54.08000000
   H     51.19000000    78.08000000    55.22000000
   H     50.62000000    77.56000000    52.79000000
   H     52.43000000    76.38000000    54.00000000
   H     53.57000000    77.56000000    53.53000000
   H     50.86000000    79.61000000    51.60000000
   H     52.61000000    79.63000000    51.99000000
   H     51.79000000    78.37000000    50.97000000
   H     53.06000000    76.88000000    51.17000000
   H     53.74000000    75.61000000    51.99000000
   H     51.92000000    75.59000000    51.98000000
   N     48.83000000    78.62000000    54.41000000
   C     47.51000000    79.19000000    54.52000000
   C     47.28000000    79.98000000    55.80000000
   O     47.84000000    79.62000000    56.83000000
   C     46.38000000    78.16000000    54.44000000
   C     46.61000000    76.94000000    55.32000000
   O     46.23000000    76.89000000    56.51000000
   O     47.40000000    76.09000000    54.87000000
   H     48.98000000    77.62000000    54.51000000
   H     47.24000000    79.77000000    53.64000000
   H     46.33000000    77.87000000    53.39000000
   H     45.44000000    78.67000000    54.65000000
   N     46.39000000    80.97000000    55.82000000
   C     45.73000000    81.76000000    54.80000000
   C     46.51000000    82.51000000    53.72000000
   O     47.71000000    82.70000000    53.85000000
   H     46.38000000    81.36000000    56.75000000
   H     45.05000000    82.43000000    55.33000000
   H     44.99000000    81.12000000    54.32000000
   N     46.04000000    82.80000000    52.51000000
   C     44.71000000    82.54000000    51.98000000
   C     44.68000000    81.91000000    50.60000000
   O     44.72000000    82.57000000    49.56000000
   C     43.93000000    83.84000000    52.09000000
   C     42.53000000    83.74000000    51.49000000
   O     41.85000000    84.73000000    51.15000000
   O     41.93000000    82.65000000    51.39000000
   H     46.79000000    83.05000000    51.89000000
   H     44.29000000    81.81000000    52.68000000
   H     44.53000000    84.59000000    51.58000000
   H     43.82000000    84.15000000    53.13000000
   N     44.61000000    80.58000000    50.51000000
   C     44.77000000    79.56000000    51.53000000
   C     44.78000000    78.10000000    51.11000000
   O     44.57000000    77.21000000    51.92000000
   H     44.32000000    80.25000000    49.61000000
   H     44.02000000    79.71000000    52.31000000
   H     45.73000000    79.82000000    51.99000000
   N     44.81000000    77.86000000    49.79000000
   C     44.69000000    76.53000000    49.24000000
   C     46.02000000    75.85000000    48.96000000
   O     46.03000000    74.63000000    48.80000000
   C     43.80000000    76.53000000    47.99000000
   C     42.30000000    76.74000000    48.18000000
   C     41.44000000    76.57000000    46.94000000
   N     40.16000000    76.20000000    47.00000000
   O     41.92000000    76.84000000    45.84000000
   H     45.00000000    78.60000000    49.13000000
   H     44.21000000    75.97000000    50.04000000
   H     43.92000000    75.56000000    47.51000000
   H     44.16000000    77.27000000    47.28000000
   H     42.07000000    77.61000000    48.80000000
   H     41.99000000    75.92000000    48.83000000
   H     39.59000000    76.15000000    47.83000000
   H     39.70000000    76.15000000    46.10000000
   N     47.13000000    76.59000000    48.92000000
   C     48.50000000    76.14000000    48.76000000
   C     49.32000000    77.33000000    48.32000000
   O     49.58000000    78.25000000    49.10000000
   C     49.03000000    75.64000000    50.10000000
   C     48.99000000    74.12000000    50.18000000
   C     48.45000000    76.14000000    51.41000000
   H     46.96000000    77.56000000    49.16000000
   H     48.54000000    75.37000000    47.98000000
   H     50.07000000    75.98000000    50.16000000
   H     48.01000000    73.72000000    50.41000000
   H     49.36000000    73.68000000    49.26000000
   H     49.57000000    73.74000000    51.03000000
   H     47.38000000    75.98000000    51.55000000
   H     48.95000000    75.58000000    52.20000000
   H     48.55000000    77.23000000    51.45000000
   N     49.72000000    77.34000000    47.04000000
   C     50.43000000    78.47000000    46.47000000
   C     49.48000000    79.52000000    45.91000000
   O     49.91000000    80.31000000    45.08000000
   C     51.43000000    77.99000000    45.43000000
   C     52.46000000    79.01000000    44.95000000
   N     52.74000000    79.16000000    43.65000000
   O     53.12000000    79.70000000    45.73000000
   H     49.37000000    76.61000000    46.45000000
   H     50.96000000    79.01000000    47.26000000
   H     50.90000000    77.65000000    44.54000000
   H     51.98000000    77.19000000    45.92000000
   H     52.05000000    78.85000000    42.98000000
   H     53.56000000    79.69000000    43.38000000
   N     48.17000000    79.48000000    46.16000000
   C     47.24000000    80.41000000    45.54000000
   C     47.27000000    81.75000000    46.25000000
   O     47.19000000    81.78000000    47.48000000
   C     45.84000000    79.82000000    45.34000000
   C     44.91000000    80.58000000    44.43000000
   C     43.92000000    81.41000000    44.97000000
   C     44.90000000    80.34000000    43.05000000
   C     42.98000000    82.07000000    44.17000000
   C     43.99000000    81.00000000    42.21000000
   C     43.03000000    81.86000000    42.78000000
   O     42.06000000    82.48000000    42.05000000
   H     47.74000000    78.88000000    46.85000000
   H     47.54000000    80.72000000    44.54000000
   H     45.35000000    79.51000000    46.26000000
   H     45.99000000    78.87000000    44.83000000
   H     43.94000000    81.62000000    46.03000000
   H     45.69000000    79.72000000    42.65000000
   H     42.37000000    82.77000000    44.72000000
   H     44.05000000    80.90000000    41.14000000
   H     41.44000000    82.99000000    42.58000000
   N     47.39000000    82.87000000    45.54000000
   C     47.42000000    84.19000000    46.15000000
   C     48.60000000    84.44000000    47.08000000
   O     48.63000000    85.39000000    47.85000000
   C     46.01000000    84.65000000    46.50000000
   C     45.07000000    85.07000000    45.37000000
   C     45.47000000    86.33000000    44.62000000
   O     46.12000000    86.23000000    43.56000000
   O     45.16000000    87.45000000    45.08000000
   H     47.32000000    82.75000000    44.54000000
   H     47.73000000    84.79000000    45.29000000
   H     46.10000000    85.61000000    47.01000000
   H     45.54000000    83.96000000    47.20000000
   H     44.13000000    85.21000000    45.90000000
   H     44.94000000    84.20000000    44.73000000
   N     49.61000000    83.58000000    46.96000000
   C     50.88000000    83.78000000    47.62000000
   C     51.81000000    84.69000000    46.83000000
   O     52.72000000    85.27000000    47.42000000
   C     51.63000000    82.50000000    47.96000000
   C     50.89000000    81.58000000    48.94000000
   C     50.83000000    82.23000000    50.31000000
   O     49.95000000    81.82000000    51.10000000
   O     51.61000000    83.10000000    50.76000000
   H     49.44000000    82.74000000    46.41000000
   H     50.61000000    84.20000000    48.59000000
   H     52.69000000    82.58000000    48.18000000
   H     51.71000000    81.90000000    47.05000000
   H     51.46000000    80.65000000    48.98000000
   H     49.88000000    81.40000000    48.58000000
   N     51.71000000    84.98000000    45.53000000
   C     52.78000000    85.62000000    44.79000000
   H     53.67400000    84.99800000    44.83500000
   H     52.47800000    85.74700000    43.75000000
   H     52.99300000    86.59500000    45.22900000
   H     50.89000000    84.66000000    45.03000000
  Ca     50.51000000    83.08000000    53.22000000
   O     52.15000000    85.03000000    52.83000000
   H     52.94000000    84.78000000    52.36000000
   H     51.87000000    85.85000000    52.41000000
   O     49.48000000    85.08000000    54.84000000
   H     49.01000000    85.78000000    54.38000000
   H     50.15000000    85.52000000    55.36000000
   O     49.21000000    84.75000000    51.73000000
   H     49.48000000    85.60000000    51.36000000
   H     48.46000000    84.49000000    51.20000000

Ca 1.00



