%chk=loop2.holoCaM.run87.water0.chk
%nprocshared=20
%mem=10GB
%nosave
#b3lyp/svp scf=(tight,noincore,xqc) Test 
#IOP(5/87=12) Density=Current Pop=(MK,readradii) iop(6/33=2) iop(6/42=6)

loop2.holoCaM.run87.water0 

   -2  1 
   C     39.30000000    76.85000000    43.54000000
   C     39.02000000    76.81000000    45.03000000
   O     39.51000000    75.91000000    45.71000000
   H     40.34500000    76.59700000    43.36000000
   H     38.65900000    76.13100000    43.03000000
   H     39.09900000    77.85100000    43.15900000
   N     38.24000000    77.76000000    45.56000000
   C     37.83000000    77.82000000    46.94000000
   C     36.64000000    76.92000000    47.28000000
   O     35.52000000    77.05000000    46.79000000
   C     37.50000000    79.28000000    47.20000000
   C     37.12000000    79.59000000    48.65000000
   O     36.68000000    80.73000000    48.91000000
   O     37.34000000    78.72000000    49.52000000
   H     38.03000000    78.59000000    45.02000000
   H     38.72000000    77.62000000    47.53000000
   H     36.66000000    79.63000000    46.59000000
   H     38.35000000    79.81000000    46.78000000
   N     36.80000000    75.94000000    48.16000000
   C     35.92000000    74.80000000    48.31000000
   C     34.87000000    74.88000000    49.42000000
   O     33.99000000    74.02000000    49.43000000
   C     36.81000000    73.57000000    48.43000000
   H     37.67000000    75.92000000    48.68000000
   H     35.38000000    74.77000000    47.36000000
   H     37.47000000    73.49000000    47.56000000
   H     37.29000000    73.46000000    49.40000000
   H     36.16000000    72.70000000    48.32000000
   N     34.95000000    75.91000000    50.26000000
   C     33.90000000    76.42000000    51.11000000
   C     33.31000000    77.77000000    50.70000000
   O     32.25000000    78.17000000    51.19000000
   C     34.47000000    76.42000000    52.53000000
   C     35.80000000    77.12000000    52.75000000
   O     35.90000000    78.16000000    52.07000000
   O     36.75000000    76.63000000    53.40000000
   H     35.80000000    76.44000000    50.15000000
   H     33.04000000    75.76000000    51.09000000
   H     34.54000000    75.36000000    52.79000000
   H     33.73000000    76.80000000    53.23000000
   N     33.95000000    78.49000000    49.78000000
   C     33.52000000    79.78000000    49.28000000
   C     33.77000000    81.02000000    50.13000000
   O     33.08000000    82.03000000    49.98000000
   H     34.83000000    78.16000000    49.41000000
   H     32.47000000    79.81000000    48.99000000
   H     34.08000000    79.94000000    48.36000000
   N     34.67000000    80.81000000    51.09000000
   C     34.88000000    81.76000000    52.16000000
   C     35.77000000    82.95000000    51.82000000
   O     35.71000000    83.95000000    52.54000000
   C     35.41000000    81.16000000    53.46000000
   C     36.87000000    80.73000000    53.43000000
   N     37.39000000    80.27000000    54.57000000
   O     37.59000000    80.62000000    52.44000000
   H     35.04000000    79.88000000    50.94000000
   H     33.93000000    82.19000000    52.48000000
   H     34.85000000    80.29000000    53.79000000
   H     35.40000000    81.99000000    54.16000000
   H     36.83000000    80.10000000    55.40000000
   H     38.37000000    80.02000000    54.60000000
   N     36.50000000    82.91000000    50.71000000
   C     37.43000000    83.95000000    50.33000000
   C     38.91000000    83.64000000    50.50000000
   O     39.67000000    84.45000000    49.96000000
   H     36.49000000    82.12000000    50.08000000
   H     37.33000000    84.86000000    50.93000000
   H     37.17000000    84.34000000    49.35000000
   N     39.42000000    82.63000000    51.21000000
   C     40.82000000    82.32000000    51.41000000
   C     41.12000000    80.87000000    51.04000000
   O     40.34000000    79.95000000    51.27000000
   C     41.28000000    82.61000000    52.84000000
   C     41.68000000    84.06000000    53.05000000
   O     40.32000000    82.30000000    53.83000000
   H     38.72000000    82.07000000    51.66000000
   H     41.42000000    82.92000000    50.73000000
   H     42.06000000    81.90000000    53.11000000
   H     40.45000000    81.38000000    54.08000000
   H     41.85000000    84.23000000    54.11000000
   H     42.59000000    84.30000000    52.51000000
   H     40.88000000    84.73000000    52.73000000
   N     42.27000000    80.61000000    50.41000000
   C     42.70000000    79.30000000    49.94000000
   C     43.42000000    78.65000000    51.11000000
   O     44.41000000    79.15000000    51.66000000
   C     43.48000000    79.34000000    48.63000000
   C     42.65000000    79.71000000    47.41000000
   C     44.33000000    78.10000000    48.39000000
   C     41.46000000    78.83000000    47.02000000
   H     42.87000000    81.40000000    50.23000000
   H     41.82000000    78.67000000    49.82000000
   H     44.25000000    80.12000000    48.68000000
   H     43.30000000    79.79000000    46.54000000
   H     42.22000000    80.69000000    47.61000000
   H     44.93000000    78.25000000    47.49000000
   H     44.81000000    77.72000000    49.29000000
   H     43.66000000    77.34000000    47.99000000
   H     41.80000000    77.91000000    46.54000000
   H     40.84000000    78.53000000    47.86000000
   H     40.82000000    79.37000000    46.32000000
   N     42.82000000    77.56000000    51.58000000
   C     43.43000000    76.62000000    52.50000000
   C     44.26000000    75.60000000    51.73000000
   O     43.94000000    75.35000000    50.57000000
   C     42.34000000    75.84000000    53.23000000
   C     41.32000000    76.78000000    53.86000000
   O     40.17000000    76.93000000    53.39000000
   O     41.74000000    77.45000000    54.83000000
   H     41.94000000    77.33000000    51.15000000
   H     44.02000000    77.06000000    53.31000000
   H     42.80000000    75.22000000    54.00000000
   H     41.74000000    75.19000000    52.59000000
   N     45.08000000    74.81000000    52.42000000
   C     45.90000000    73.77000000    51.82000000
   C     45.17000000    72.79000000    50.92000000
   O     45.59000000    72.72000000    49.77000000
   C     46.75000000    72.95000000    52.79000000
   C     47.58000000    71.85000000    52.18000000
   C     48.66000000    72.16000000    51.34000000
   C     47.44000000    70.62000000    52.83000000
   C     49.50000000    71.08000000    51.02000000
   C     48.34000000    69.58000000    52.52000000
   C     49.34000000    69.80000000    51.57000000
   H     45.09000000    75.01000000    53.41000000
   H     46.63000000    74.21000000    51.14000000
   H     46.18000000    72.57000000    53.63000000
   H     47.56000000    73.55000000    53.22000000
   H     48.72000000    73.12000000    50.85000000
   H     46.67000000    70.40000000    53.55000000
   H     50.31000000    71.34000000    50.35000000
   H     48.18000000    68.57000000    52.84000000
   H     49.78000000    68.87000000    51.22000000
   N     44.06000000    72.12000000    51.26000000
   C     43.51000000    71.17000000    50.31000000
   C     43.05000000    71.81000000    49.01000000
   O     43.04000000    71.32000000    47.89000000
   C     42.52000000    70.32000000    51.09000000
   C     42.86000000    70.56000000    52.56000000
   C     43.43000000    71.97000000    52.55000000
   H     44.24000000    70.42000000    50.02000000
   H     41.51000000    70.64000000    50.82000000
   H     42.60000000    69.24000000    50.96000000
   H     42.00000000    70.44000000    53.23000000
   H     43.67000000    69.90000000    52.86000000
   H     42.60000000    72.68000000    52.63000000
   H     44.14000000    72.18000000    53.35000000
   N     42.68000000    73.08000000    49.18000000
   C     42.20000000    73.89000000    48.08000000
   C     43.30000000    74.30000000    47.11000000
   O     43.06000000    74.45000000    45.91000000
   C     41.49000000    75.12000000    48.64000000
   C     40.55000000    74.76000000    49.79000000
   C     39.76000000    75.90000000    50.41000000
   O     40.33000000    77.00000000    50.55000000
   O     38.58000000    75.79000000    50.82000000
   H     43.01000000    73.59000000    49.99000000
   H     41.33000000    73.43000000    47.61000000
   H     40.92000000    75.60000000    47.85000000
   H     42.24000000    75.85000000    48.95000000
   H     41.18000000    74.37000000    50.59000000
   H     39.94000000    73.88000000    49.57000000
   N     44.49000000    74.47000000    47.67000000
   C     45.62000000    74.88000000    46.86000000
   H     46.48800000    74.27200000    47.11500000
   H     45.38000000    74.74500000    45.80500000
   H     45.84300000    75.93000000    47.05100000
   H     44.67000000    74.51000000    48.67000000
  Ca     38.56000000    78.20000000    51.87000000

Ca 1.00



