%chk=loop1.holoCaM.run35.water2.chk
%nprocshared=20
%mem=10GB
%nosave
#b3lyp/svp scf=(tight,noincore,xqc) Test 
#IOP(5/87=12) Density=Current Pop=(MK,readradii) iop(6/33=2) iop(6/42=6)

loop1.holoCaM.run35.water2 

   0  1 
   C     64.04000000    91.71000000   116.00900000
   C     63.52000000    91.17000000   117.33900000
   O     62.35000000    90.82000000   117.39900000
   H     65.06200000    91.36600000   115.85300000
   H     63.40800000    91.34900000   115.19800000
   H     64.02300000    92.80000000   116.02700000
   N     64.35000000    91.09000000   118.37900000
   C     63.85000000    91.02000000   119.73900000
   C     63.02000000    92.21000000   120.17900000
   O     63.47000000    93.35000000   120.22900000
   C     65.07000000    90.79000000   120.61900000
   C     64.83000000    90.80000000   122.12900000
   O     65.84000000    91.01000000   122.83900000
   O     63.69000000    90.62000000   122.60900000
   H     65.32000000    91.35000000   118.21900000
   H     63.26000000    90.10000000   119.74900000
   H     65.78000000    91.60000000   120.42900000
   H     65.64000000    89.91000000   120.34900000
   N     61.79000000    91.96000000   120.63900000
   C     60.72000000    92.93000000   120.69900000
   C     60.60000000    93.46000000   122.11900000
   O     60.53000000    94.68000000   122.30900000
   C     59.48000000    92.32000000   120.03900000
   C     59.45000000    92.72000000   118.56900000
   C     58.09000000    92.39000000   117.95900000
   C     57.64000000    93.34000000   116.84900000
   N     57.39000000    94.71000000   117.32900000
   H     61.51000000    90.99000000   120.72900000
   H     60.99000000    93.86000000   120.18900000
   H     58.63000000    92.84000000   120.47900000
   H     59.38000000    91.25000000   120.20900000
   H     60.14000000    92.05000000   118.04900000
   H     59.66000000    93.78000000   118.43900000
   H     57.37000000    92.45000000   118.77900000
   H     58.07000000    91.40000000   117.51900000
   H     56.70000000    93.04000000   116.38900000
   H     58.31000000    93.25000000   115.99900000
   H     58.29000000    95.07000000   117.60900000
   H     57.09000000    95.27000000   116.54900000
   H     56.67000000    94.86000000   118.01900000
   N     60.59000000    92.55000000   123.09900000
   C     60.68000000    92.92000000   124.48900000
   C     62.07000000    93.32000000   124.96900000
   O     62.23000000    93.81000000   126.08900000
   C     59.91000000    92.00000000   125.42900000
   C     60.36000000    90.54000000   125.32900000
   O     59.67000000    89.65000000   125.86900000
   O     61.47000000    90.29000000   124.82900000
   H     60.80000000    91.58000000   122.91900000
   H     60.16000000    93.87000000   124.62900000
   H     58.89000000    92.04000000   125.04900000
   H     59.93000000    92.39000000   126.44900000
   N     63.09000000    93.09000000   124.13900000
   C     64.44000000    93.51000000   124.48900000
   C     65.10000000    92.75000000   125.63900000
   O     65.98000000    93.28000000   126.30900000
   H     62.96000000    92.52000000   123.31900000
   H     64.41000000    94.59000000   124.63900000
   H     65.13000000    93.21000000   123.70900000
   N     64.67000000    91.52000000   125.90900000
   C     65.32000000    90.67000000   126.87900000
   C     66.63000000    90.08000000   126.37900000
   O     67.28000000    89.35000000   127.12900000
   C     64.35000000    89.54000000   127.22900000
   C     63.91000000    88.62000000   126.09900000
   O     62.87000000    87.94000000   126.19900000
   O     64.53000000    88.62000000   125.01900000
   H     64.03000000    91.07000000   125.26900000
   H     65.54000000    91.20000000   127.80900000
   H     63.43000000    90.03000000   127.54900000
   H     64.79000000    89.01000000   128.06900000
   N     67.08000000    90.28000000   125.13900000
   C     68.30000000    89.75000000   124.55900000
   C     68.22000000    88.52000000   123.66900000
   O     69.25000000    88.02000000   123.21900000
   H     66.40000000    90.68000000   124.51900000
   H     69.16000000    89.63000000   125.21900000
   H     68.57000000    90.51000000   123.82900000
   N     67.01000000    88.03000000   123.40900000
   C     66.80000000    86.76000000   122.73900000
   C     65.50000000    86.84000000   121.95900000
   O     64.42000000    87.31000000   122.32900000
   C     66.67000000    85.59000000   123.69900000
   C     67.93000000    85.13000000   124.41900000
   O     65.61000000    85.89000000   124.57900000
   H     66.15000000    88.46000000   123.72900000
   H     67.66000000    86.55000000   122.09900000
   H     66.37000000    84.69000000   123.15900000
   H     65.70000000    86.79000000   124.89900000
   H     67.82000000    84.14000000   124.87900000
   H     68.85000000    85.22000000   123.83900000
   H     68.12000000    85.81000000   125.24900000
   N     65.54000000    86.19000000   120.78900000
   C     64.41000000    85.95000000   119.90900000
   C     63.73000000    84.68000000   120.38900000
   O     64.24000000    83.56000000   120.46900000
   C     64.86000000    85.92000000   118.45900000
   C     65.52000000    87.22000000   117.99900000
   C     63.69000000    85.63000000   117.51900000
   C     66.27000000    87.22000000   116.66900000
   H     66.33000000    85.62000000   120.53900000
   H     63.77000000    86.83000000   119.98900000
   H     65.58000000    85.15000000   118.17900000
   H     66.34000000    87.42000000   118.68900000
   H     64.83000000    88.06000000   118.00900000
   H     62.91000000    86.39000000   117.48900000
   H     64.11000000    85.51000000   116.51900000
   H     63.24000000    84.66000000   117.72900000
   H     65.65000000    86.90000000   115.83900000
   H     66.63000000    88.23000000   116.46900000
   H     67.16000000    86.64000000   116.88900000
   N     62.43000000    84.82000000   120.65900000
   C     61.55000000    83.71000000   120.97900000
   C     60.74000000    83.27000000   119.76900000
   O     60.75000000    83.92000000   118.72900000
   C     60.66000000    84.04000000   122.17900000
   C     59.57000000    85.10000000   122.06900000
   O     60.08000000    82.88000000   122.71900000
   H     62.00000000    85.73000000   120.59900000
   H     62.13000000    82.84000000   121.26900000
   H     61.36000000    84.32000000   122.96900000
   H     60.09000000    82.94000000   123.67900000
   H     59.16000000    85.01000000   121.05900000
   H     58.83000000    84.82000000   122.81900000
   H     59.89000000    86.12000000   122.28900000
   N     60.09000000    82.10000000   119.76900000
   C     59.28000000    81.60000000   118.66900000
   C     58.21000000    82.57000000   118.18900000
   O     57.94000000    82.67000000   116.99900000
   C     58.53000000    80.37000000   119.15900000
   C     58.29000000    79.38000000   118.01900000
   O     59.20000000    79.73000000   120.21900000
   H     60.06000000    81.63000000   120.65900000
   H     59.89000000    81.33000000   117.80900000
   H     57.57000000    80.70000000   119.55900000
   H     59.64000000    78.99000000   119.79900000
   H     57.49000000    79.79000000   117.39900000
   H     59.12000000    79.24000000   117.32900000
   H     57.96000000    78.45000000   118.47900000
   N     57.63000000    83.22000000   119.19900000
   C     56.63000000    84.26000000   119.03900000
   C     57.18000000    85.54000000   118.43900000
   O     56.41000000    86.44000000   118.10900000
   C     55.93000000    84.42000000   120.38900000
   C     55.10000000    83.18000000   120.70900000
   C     54.21000000    83.56000000   121.88900000
   C     53.41000000    82.40000000   122.47900000
   N     52.46000000    81.76000000   121.55900000
   H     57.75000000    82.88000000   120.13900000
   H     56.05000000    83.84000000   118.20900000
   H     55.23000000    85.24000000   120.21900000
   H     56.62000000    84.63000000   121.19900000
   H     55.75000000    82.35000000   120.98900000
   H     54.58000000    82.97000000   119.77900000
   H     53.62000000    84.38000000   121.47900000
   H     54.75000000    83.97000000   122.73900000
   H     52.84000000    82.83000000   123.30900000
   H     54.10000000    81.65000000   122.85900000
   H     51.91000000    81.01000000   121.94900000
   H     51.82000000    82.42000000   121.13900000
   H     52.98000000    81.41000000   120.76900000
   N     58.50000000    85.63000000   118.22900000
   C     59.08000000    86.81000000   117.61900000
   C     59.83000000    86.51000000   116.33900000
   O     60.09000000    87.42000000   115.54900000
   C     60.08000000    87.38000000   118.61900000
   C     59.57000000    88.05000000   119.89900000
   C     60.73000000    88.39000000   120.81900000
   O     61.56000000    87.48000000   121.01900000
   O     60.77000000    89.43000000   121.49900000
   H     59.16000000    84.95000000   118.57900000
   H     58.31000000    87.56000000   117.44900000
   H     60.59000000    88.25000000   118.19900000
   H     60.87000000    86.65000000   118.80900000
   H     58.96000000    87.25000000   120.32900000
   H     59.07000000    88.98000000   119.64900000
   N     60.39000000    85.31000000   116.15900000
   C     61.07000000    84.87000000   114.95900000
   H     62.07200000    84.52500000   115.21500000
   H     60.51100000    84.05300000   114.50300000
   H     61.14100000    85.70000000   114.25600000
   H     60.37000000    84.62000000   116.89900000
  Ca     62.42000000    88.40000000   123.45900000
   O     62.92000000    85.93000000   124.08900000
   H     62.48000000    85.68000000   124.89900000
   H     63.78000000    85.50000000   124.12900000
   O     60.11000000    87.46000000   124.43900000
   H     59.29000000    87.13000000   124.06900000
   H     59.84000000    88.17000000   125.02900000

Ca 1.00



