%chk=loop1.holoCaM-CaMKII.run79.water2.chk
%nprocshared=20
%mem=10GB
%nosave
#b3lyp/svp scf=(tight,noincore,xqc) Test 
#IOP(5/87=12) Density=Current Pop=(MK,readradii) iop(6/33=2) iop(6/42=6)

loop1.holoCaM-CaMKII.run79.water2 

   0  1 
   C     35.17000000    60.08000000    87.60400000
   C     35.69000000    61.20000000    86.70400000
   O     36.02000000    60.94000000    85.54400000
   H     34.16800000    59.79400000    87.28500000
   H     35.83300000    59.21800000    87.53200000
   H     35.13700000    60.42900000    88.63600000
   N     35.78000000    62.44000000    87.18400000
   C     36.13000000    63.61000000    86.40400000
   C     37.63000000    63.48000000    86.14400000
   O     38.43000000    63.75000000    87.03400000
   C     35.68000000    64.86000000    87.16400000
   C     36.22000000    66.15000000    86.57400000
   O     36.12000000    67.12000000    87.36400000
   O     36.60000000    66.23000000    85.38400000
   H     35.55000000    62.59000000    88.15400000
   H     35.59000000    63.69000000    85.46400000
   H     35.86000000    64.74000000    88.23400000
   H     34.62000000    64.91000000    86.91400000
   N     38.02000000    63.21000000    84.90400000
   C     39.33000000    62.75000000    84.48400000
   C     40.31000000    63.90000000    84.26400000
   O     41.48000000    63.72000000    84.57400000
   C     39.20000000    61.97000000    83.17400000
   C     40.53000000    61.55000000    82.56400000
   C     40.28000000    60.72000000    81.30400000
   C     41.54000000    60.48000000    80.48400000
   N     41.34000000    59.57000000    79.34400000
   H     37.27000000    63.24000000    84.22400000
   H     39.72000000    62.05000000    85.22400000
   H     38.51000000    62.42000000    82.47400000
   H     38.71000000    61.03000000    83.43400000
   H     41.08000000    60.97000000    83.30400000
   H     41.14000000    62.41000000    82.26400000
   H     39.59000000    61.23000000    80.63400000
   H     39.74000000    59.81000000    81.54400000
   H     42.24000000    60.06000000    81.20400000
   H     41.93000000    61.47000000    80.23400000
   H     41.03000000    58.69000000    79.73400000
   H     40.66000000    59.87000000    78.65400000
   H     42.23000000    59.37000000    78.91400000
   N     39.84000000    65.08000000    83.84400000
   C     40.64000000    66.28000000    83.75400000
   C     40.40000000    67.29000000    84.87400000
   O     41.18000000    68.23000000    85.02400000
   C     40.42000000    66.92000000    82.39400000
   C     38.99000000    67.10000000    81.91400000
   O     38.05000000    67.11000000    82.73400000
   O     38.83000000    66.94000000    80.68400000
   H     38.84000000    65.20000000    83.80400000
   H     41.69000000    66.01000000    83.85400000
   H     40.89000000    66.28000000    81.64400000
   H     40.92000000    67.89000000    82.38400000
   N     39.35000000    67.16000000    85.68400000
   C     39.27000000    67.87000000    86.94400000
   C     38.65000000    69.26000000    86.86400000
   O     39.22000000    70.16000000    87.46400000
   H     38.62000000    66.47000000    85.55400000
   H     40.27000000    68.03000000    87.34400000
   H     38.64000000    67.25000000    87.58400000
   N     37.62000000    69.42000000    86.03400000
   C     36.95000000    70.70000000    85.85400000
   C     35.80000000    70.87000000    86.84400000
   O     35.40000000    72.01000000    87.04400000
   C     36.43000000    70.89000000    84.43400000
   C     35.66000000    69.72000000    83.84400000
   O     34.86000000    69.03000000    84.51400000
   O     35.93000000    69.32000000    82.69400000
   H     37.21000000    68.56000000    85.70400000
   H     37.65000000    71.52000000    86.01400000
   H     37.33000000    71.06000000    83.84400000
   H     35.83000000    71.80000000    84.41400000
   N     35.34000000    69.81000000    87.51400000
   C     34.13000000    69.77000000    88.31400000
   C     32.84000000    69.26000000    87.68400000
   O     31.79000000    69.43000000    88.30400000
   H     35.82000000    68.93000000    87.43400000
   H     33.91000000    70.82000000    88.51400000
   H     34.22000000    69.24000000    89.25400000
   N     32.88000000    68.62000000    86.51400000
   C     31.80000000    67.88000000    85.89400000
   C     32.26000000    66.55000000    85.31400000
   O     33.36000000    66.52000000    84.77400000
   C     30.94000000    68.60000000    84.85400000
   C     29.99000000    69.59000000    85.50400000
   O     31.79000000    69.27000000    83.94400000
   H     33.77000000    68.46000000    86.06400000
   H     31.11000000    67.76000000    86.72400000
   H     30.34000000    67.84000000    84.35400000
   H     32.66000000    69.23000000    84.37400000
   H     29.47000000    69.14000000    86.35400000
   H     30.54000000    70.48000000    85.82400000
   H     29.28000000    69.89000000    84.73400000
   N     31.42000000    65.54000000    85.57400000
   C     31.52000000    64.33000000    84.79400000
   C     30.67000000    64.35000000    83.53400000
   O     29.52000000    64.78000000    83.63400000
   C     31.18000000    63.14000000    85.69400000
   C     31.86000000    63.10000000    87.05400000
   C     31.43000000    61.80000000    85.00400000
   C     31.13000000    62.36000000    88.17400000
   H     30.51000000    65.74000000    85.94400000
   H     32.57000000    64.29000000    84.49400000
   H     30.10000000    63.19000000    85.85400000
   H     32.07000000    64.09000000    87.45400000
   H     32.86000000    62.66000000    87.00400000
   H     32.44000000    61.70000000    84.60400000
   H     31.32000000    60.96000000    85.69400000
   H     30.79000000    61.63000000    84.14400000
   H     31.04000000    61.33000000    87.81400000
   H     31.76000000    62.43000000    89.06400000
   H     30.12000000    62.70000000    88.39400000
   N     31.13000000    63.91000000    82.35400000
   C     30.36000000    63.64000000    81.15400000
   C     29.98000000    62.18000000    80.97400000
   O     30.30000000    61.34000000    81.81400000
   C     31.16000000    64.14000000    79.95400000
   C     31.71000000    65.56000000    79.94400000
   O     32.25000000    63.32000000    79.59400000
   H     32.13000000    63.89000000    82.26400000
   H     29.38000000    64.10000000    81.07400000
   H     30.52000000    64.03000000    79.07400000
   H     32.88000000    63.82000000    79.07400000
   H     30.86000000    66.24000000    79.92400000
   H     32.43000000    65.71000000    80.74400000
   H     32.17000000    65.78000000    78.98400000
   N     29.32000000    61.83000000    79.87400000
   C     29.00000000    60.46000000    79.55400000
   C     30.25000000    59.66000000    79.19400000
   O     30.35000000    58.45000000    79.42400000
   C     27.98000000    60.41000000    78.42400000
   C     27.29000000    59.05000000    78.32400000
   O     26.90000000    61.29000000    78.66400000
   H     29.03000000    62.56000000    79.22400000
   H     28.55000000    60.13000000    80.49400000
   H     28.48000000    60.67000000    77.49400000
   H     27.24000000    62.13000000    78.33400000
   H     26.57000000    59.00000000    77.51400000
   H     28.09000000    58.37000000    78.03400000
   H     26.89000000    58.81000000    79.31400000
   N     31.26000000    60.33000000    78.64400000
   C     32.52000000    59.68000000    78.35400000
   C     33.17000000    59.21000000    79.64400000
   O     33.64000000    58.07000000    79.66400000
   C     33.47000000    60.54000000    77.51400000
   C     33.15000000    60.57000000    76.02400000
   C     34.22000000    61.33000000    75.25400000
   C     33.78000000    61.48000000    73.79400000
   N     34.59000000    62.49000000    73.08400000
   H     31.15000000    61.33000000    78.64400000
   H     32.28000000    58.71000000    77.92400000
   H     34.52000000    60.31000000    77.65400000
   H     33.25000000    61.52000000    77.93400000
   H     32.15000000    61.01000000    75.95400000
   H     33.08000000    59.54000000    75.67400000
   H     35.17000000    60.80000000    75.26400000
   H     34.29000000    62.35000000    75.63400000
   H     32.74000000    61.80000000    73.80400000
   H     33.84000000    60.49000000    73.35400000
   H     35.60000000    62.40000000    73.13400000
   H     34.34000000    62.51000000    72.11400000
   H     34.30000000    63.36000000    73.49400000
   N     33.31000000    60.14000000    80.59400000
   C     34.08000000    60.02000000    81.81400000
   C     33.40000000    59.13000000    82.84400000
   O     34.09000000    58.34000000    83.48400000
   C     34.36000000    61.42000000    82.35400000
   C     35.06000000    62.42000000    81.44400000
   C     35.17000000    63.78000000    82.12400000
   O     36.30000000    64.27000000    82.36400000
   O     34.16000000    64.44000000    82.45400000
   H     32.94000000    61.07000000    80.44400000
   H     35.09000000    59.66000000    81.62400000
   H     34.83000000    61.18000000    83.31400000
   H     33.42000000    61.86000000    82.69400000
   H     34.64000000    62.47000000    80.44400000
   H     36.05000000    61.96000000    81.38400000
   N     32.07000000    59.11000000    82.91400000
   C     31.35000000    58.02000000    83.54400000
   H     30.37300000    57.91000000    83.07200000
   H     31.91500000    57.09500000    83.42800000
   H     31.21900000    58.23500000    84.60400000
   H     31.48000000    59.77000000    82.43400000
  Ca     35.55000000    66.78000000    83.06000000
   O     33.29000000    68.00000000    82.06000000
   H     32.69000000    67.97000000    81.31000000
   H     32.75000000    68.33000000    82.78000000
   O     36.02000000    66.44000000    80.43000000
   H     36.95000000    66.59000000    80.26000000
   H     35.59000000    66.67000000    79.61000000

Ca 1.00



