%chk=loop4.apoCaM-CA-Ng.Init295.run33.water3.chk
%nprocshared=20
%mem=10GB
%nosave
#b3lyp/svp scf=(tight,noincore,xqc) Test 
#IOP(5/87=12) Density=Current Pop=(MK,readradii) iop(6/33=2) iop(6/42=6)

loop4.apoCaM-CA-Ng.Init295.run33.water3 

   -3  1 
   C     71.95000000    50.75000000    91.18000000
   C     73.09000000    49.79000000    91.47000000
   O     74.01000000    49.60000000    90.67000000
   H     71.10000000    50.50800000    91.81800000
   H     72.27400000    51.77100000    91.38000000
   H     71.65500000    50.66000000    90.13400000
   N     72.98000000    49.10000000    92.61000000
   C     73.82000000    47.99000000    93.01000000
   C     75.31000000    48.25000000    93.15000000
   O     76.16000000    47.41000000    92.86000000
   C     73.60000000    46.84000000    92.03000000
   C     72.15000000    46.65000000    91.62000000
   O     71.35000000    46.01000000    92.34000000
   O     71.67000000    47.22000000    90.62000000
   H     72.13000000    49.25000000    93.14000000
   H     73.48000000    47.58000000    93.96000000
   H     74.03000000    45.95000000    92.48000000
   H     74.24000000    47.01000000    91.16000000
   N     75.63000000    49.37000000    93.81000000
   C     76.91000000    49.87000000    94.26000000
   C     76.92000000    50.05000000    95.77000000
   O     76.14000000    50.88000000    96.23000000
   C     77.24000000    51.17000000    93.52000000
   C     77.29000000    51.15000000    92.00000000
   C     78.58000000    51.78000000    93.94000000
   C     78.37000000    50.31000000    91.31000000
   H     74.91000000    50.05000000    94.03000000
   H     77.72000000    49.19000000    93.99000000
   H     76.47000000    51.91000000    93.69000000
   H     77.57000000    52.12000000    91.59000000
   H     76.27000000    50.90000000    91.71000000
   H     78.58000000    51.92000000    95.02000000
   H     79.47000000    51.17000000    93.83000000
   H     78.68000000    52.76000000    93.49000000
   H     78.24000000    49.24000000    91.45000000
   H     78.29000000    50.45000000    90.23000000
   H     79.37000000    50.61000000    91.63000000
   N     77.70000000    49.29000000    96.55000000
   C     78.61000000    48.23000000    96.18000000
   C     78.01000000    46.91000000    95.69000000
   O     78.60000000    46.30000000    94.80000000
   C     79.60000000    47.93000000    97.30000000
   C     80.27000000    49.10000000    98.01000000
   O     80.61000000    50.11000000    97.37000000
   O     80.41000000    49.10000000    99.25000000
   H     77.44000000    49.40000000    97.52000000
   H     79.21000000    48.69000000    95.40000000
   H     80.38000000    47.32000000    96.86000000
   H     79.01000000    47.42000000    98.06000000
   N     76.79000000    46.64000000    96.15000000
   C     76.06000000    45.46000000    95.74000000
   C     76.63000000    44.17000000    96.32000000
   O     77.19000000    44.23000000    97.42000000
   H     76.35000000    47.31000000    96.75000000
   H     76.19000000    45.39000000    94.66000000
   H     74.97000000    45.52000000    95.79000000
   N     76.55000000    43.07000000    95.57000000
   C     77.36000000    41.88000000    95.74000000
   C     78.41000000    41.78000000    94.63000000
   O     79.25000000    40.88000000    94.69000000
   C     76.49000000    40.64000000    95.65000000
   C     75.37000000    40.67000000    94.62000000
   O     74.38000000    39.93000000    94.80000000
   O     75.52000000    41.33000000    93.57000000
   H     75.80000000    43.02000000    94.89000000
   H     77.92000000    41.93000000    96.67000000
   H     75.95000000    40.69000000    96.60000000
   H     77.06000000    39.71000000    95.62000000
   N     78.33000000    42.57000000    93.57000000
   C     79.17000000    42.57000000    92.39000000
   C     78.59000000    41.82000000    91.21000000
   O     79.29000000    41.64000000    90.21000000
   H     77.53000000    43.19000000    93.51000000
   H     80.15000000    42.12000000    92.58000000
   H     79.34000000    43.64000000    92.23000000
   N     77.35000000    41.33000000    91.28000000
   C     76.67000000    40.64000000    90.21000000
   C     76.48000000    41.43000000    88.92000000
   O     76.85000000    40.96000000    87.85000000
   C     77.28000000    39.25000000    90.04000000
   C     77.02000000    38.44000000    91.30000000
   C     77.34000000    36.95000000    91.23000000
   N     76.78000000    36.14000000    92.13000000
   O     78.19000000    36.46000000    90.48000000
   H     76.90000000    41.36000000    92.19000000
   H     75.72000000    40.60000000    90.74000000
   H     78.34000000    39.49000000    89.90000000
   H     77.04000000    38.87000000    89.05000000
   H     75.95000000    38.56000000    91.48000000
   H     77.41000000    38.78000000    92.26000000
   H     75.99000000    36.51000000    92.63000000
   H     76.86000000    35.16000000    91.94000000
   N     76.03000000    42.67000000    89.09000000
   C     75.92000000    43.55000000    87.95000000
   C     74.64000000    43.26000000    87.17000000
   O     73.54000000    43.19000000    87.71000000
   C     75.98000000    45.01000000    88.39000000
   C     77.13000000    45.43000000    89.30000000
   C     76.16000000    45.79000000    87.09000000
   H     75.57000000    42.88000000    89.97000000
   H     76.78000000    43.45000000    87.28000000
   H     75.03000000    45.27000000    88.86000000
   H     77.09000000    44.82000000    90.21000000
   H     78.11000000    45.31000000    88.86000000
   H     77.00000000    46.49000000    89.51000000
   H     76.40000000    46.81000000    87.40000000
   H     76.96000000    45.44000000    86.44000000
   H     75.18000000    45.74000000    86.62000000
   N     74.75000000    42.90000000    85.89000000
   C     73.62000000    42.55000000    85.06000000
   C     73.08000000    43.74000000    84.28000000
   O     73.83000000    44.67000000    83.96000000
   C     74.10000000    41.38000000    84.20000000
   C     73.06000000    40.96000000    83.18000000
   N     71.81000000    40.58000000    83.48000000
   O     73.40000000    40.78000000    82.01000000
   H     75.67000000    42.91000000    85.48000000
   H     72.85000000    42.09000000    85.68000000
   H     74.34000000    40.57000000    84.88000000
   H     74.99000000    41.70000000    83.65000000
   H     71.44000000    40.50000000    84.42000000
   H     71.28000000    40.21000000    82.71000000
   N     71.81000000    43.76000000    83.88000000
   C     71.22000000    44.72000000    82.97000000
   C     69.71000000    44.82000000    83.09000000
   O     68.97000000    44.37000000    82.22000000
   C     71.62000000    44.54000000    81.51000000
   C     71.41000000    45.75000000    80.64000000
   C     72.04000000    46.97000000    80.95000000
   C     70.59000000    45.69000000    79.51000000
   C     71.71000000    48.12000000    80.22000000
   C     70.33000000    46.81000000    78.71000000
   C     70.85000000    48.06000000    79.11000000
   O     70.41000000    49.12000000    78.36000000
   H     71.27000000    42.91000000    83.99000000
   H     71.63000000    45.67000000    83.32000000
   H     71.12000000    43.64000000    81.14000000
   H     72.69000000    44.30000000    81.51000000
   H     72.69000000    47.16000000    81.79000000
   H     69.99000000    44.82000000    79.31000000
   H     72.08000000    49.07000000    80.57000000
   H     69.69000000    46.75000000    77.85000000
   H     69.79000000    48.88000000    77.68000000
   N     69.19000000    45.28000000    84.23000000
   C     67.77000000    45.30000000    84.54000000
   C     67.03000000    46.57000000    84.17000000
   O     65.93000000    46.42000000    83.64000000
   C     67.44000000    44.85000000    85.96000000
   C     65.94000000    44.71000000    86.17000000
   C     65.54000000    44.25000000    87.56000000
   O     65.85000000    43.07000000    87.84000000
   O     65.04000000    45.10000000    88.33000000
   H     69.85000000    45.56000000    84.94000000
   H     67.31000000    44.54000000    83.91000000
   H     67.87000000    45.62000000    86.60000000
   H     67.89000000    43.88000000    86.20000000
   H     65.37000000    44.08000000    85.48000000
   H     65.57000000    45.73000000    86.16000000
   N     67.36000000    47.83000000    84.48000000
   C     68.51000000    48.25000000    85.26000000
   C     69.66000000    48.81000000    84.44000000
   O     69.59000000    48.87000000    83.21000000
   C     68.01000000    49.35000000    86.19000000
   C     67.19000000    48.82000000    87.36000000
   C     68.13000000    48.46000000    88.51000000
   O     69.10000000    47.68000000    88.37000000
   O     67.92000000    48.93000000    89.65000000
   H     66.79000000    48.55000000    84.05000000
   H     68.96000000    47.40000000    85.77000000
   H     67.40000000    50.06000000    85.63000000
   H     68.81000000    49.92000000    86.65000000
   H     66.75000000    47.89000000    86.99000000
   H     66.40000000    49.51000000    87.63000000
   N     70.75000000    49.23000000    85.09000000
   C     71.95000000    49.92000000    84.66000000
   H     72.76700000    49.20400000    84.56700000
   H     71.77100000    50.39400000    83.69500000
   H     72.21600000    50.68000000    85.39500000
   H     70.76000000    49.17000000    86.09000000
  Ca     69.17000000    47.00000000    90.94000000
   O     69.71000000    44.87000000    89.44000000
   H     69.86000000    44.96000000    88.50000000
   H     69.97000000    43.97000000    89.64000000
   O     66.71000000    46.10000000    90.28000000
   H     66.61000000    45.35000000    90.87000000
   H     66.06000000    45.96000000    89.59000000
   O     68.48000000    44.85000000    92.52000000
   H     68.36000000    44.57000000    93.42000000
   H     67.94000000    44.26000000    92.00000000

Ca 1.00



