%chk=loop4.apoCaM-CA-Ng.Init293.run52.water3.chk
%nprocshared=20
%mem=10GB
%nosave
#b3lyp/svp scf=(tight,noincore,xqc) Test 
#IOP(5/87=12) Density=Current Pop=(MK,readradii) iop(6/33=2) iop(6/42=6)

loop4.apoCaM-CA-Ng.Init293.run52.water3 

   -3  1 
   C     35.00000000    58.92000000    74.39000000
   C     33.95000000    58.58000000    73.34000000
   O     32.83000000    59.07000000    73.32000000
   H     35.85600000    59.39100000    73.90700000
   H     34.57400000    59.60500000    75.12200000
   H     35.32300000    58.00700000    74.89100000
   N     34.43000000    57.72000000    72.43000000
   C     33.95000000    57.09000000    71.23000000
   C     33.37000000    58.03000000    70.18000000
   O     32.87000000    57.62000000    69.14000000
   C     33.22000000    55.78000000    71.51000000
   C     31.93000000    55.90000000    72.31000000
   O     31.26000000    56.96000000    72.36000000
   O     31.48000000    54.90000000    72.90000000
   H     35.36000000    57.45000000    72.73000000
   H     34.89000000    56.76000000    70.79000000
   H     34.00000000    55.21000000    72.02000000
   H     33.05000000    55.20000000    70.59000000
   N     33.39000000    59.36000000    70.33000000
   C     32.69000000    60.36000000    69.56000000
   C     31.19000000    60.13000000    69.61000000
   O     30.66000000    59.97000000    70.70000000
   C     33.09000000    61.81000000    69.87000000
   C     34.59000000    61.98000000    69.71000000
   C     32.70000000    62.16000000    71.30000000
   C     34.88000000    63.48000000    69.61000000
   H     33.76000000    59.62000000    71.24000000
   H     32.96000000    60.11000000    68.53000000
   H     32.61000000    62.44000000    69.11000000
   H     34.82000000    61.41000000    68.81000000
   H     35.18000000    61.57000000    70.53000000
   H     33.01000000    63.19000000    71.48000000
   H     31.62000000    62.07000000    71.46000000
   H     33.05000000    61.40000000    71.99000000
   H     34.41000000    63.88000000    68.71000000
   H     34.61000000    64.05000000    70.50000000
   H     35.95000000    63.67000000    69.52000000
   N     30.54000000    60.03000000    68.44000000
   C     29.14000000    59.69000000    68.36000000
   C     28.96000000    58.23000000    68.73000000
   O     29.83000000    57.44000000    68.38000000
   C     28.44000000    60.12000000    67.07000000
   C     29.09000000    59.59000000    65.81000000
   O     28.50000000    58.78000000    65.05000000
   O     30.30000000    59.79000000    65.55000000
   H     31.06000000    59.97000000    67.57000000
   H     28.67000000    60.29000000    69.15000000
   H     28.56000000    61.20000000    66.93000000
   H     27.37000000    59.92000000    67.12000000
   N     27.80000000    57.92000000    69.30000000
   C     26.53000000    58.57000000    69.57000000
   C     26.55000000    59.60000000    70.70000000
   O     27.57000000    59.79000000    71.37000000
   H     27.69000000    56.92000000    69.40000000
   H     25.81000000    57.84000000    69.94000000
   H     26.09000000    59.01000000    68.68000000
   N     25.45000000    60.25000000    71.09000000
   C     24.17000000    60.23000000    70.42000000
   C     24.08000000    60.91000000    69.06000000
   O     23.52000000    60.24000000    68.19000000
   C     23.08000000    60.91000000    71.26000000
   C     21.67000000    60.84000000    70.71000000
   O     21.09000000    59.73000000    70.64000000
   O     21.09000000    61.86000000    70.28000000
   H     25.61000000    60.89000000    71.85000000
   H     23.81000000    59.21000000    70.25000000
   H     23.43000000    61.94000000    71.27000000
   H     23.12000000    60.52000000    72.27000000
   N     24.67000000    62.05000000    68.70000000
   C     25.69000000    62.82000000    69.39000000
   C     26.04000000    64.12000000    68.68000000
   O     25.77000000    64.37000000    67.51000000
   H     24.40000000    62.35000000    67.78000000
   H     26.50000000    62.17000000    69.72000000
   H     25.24000000    63.14000000    70.33000000
   N     26.74000000    64.93000000    69.49000000
   C     27.14000000    66.25000000    69.04000000
   C     28.37000000    66.73000000    69.79000000
   O     28.34000000    67.65000000    70.61000000
   C     26.05000000    67.29000000    69.29000000
   C     24.79000000    67.08000000    68.46000000
   C     23.78000000    68.21000000    68.56000000
   N     22.59000000    68.14000000    67.95000000
   O     24.00000000    69.31000000    69.05000000
   H     26.77000000    64.70000000    70.47000000
   H     27.31000000    66.20000000    67.97000000
   H     26.36000000    68.29000000    69.01000000
   H     25.87000000    67.40000000    70.36000000
   H     24.36000000    66.18000000    68.90000000
   H     25.06000000    67.00000000    67.40000000
   H     22.36000000    67.31000000    67.43000000
   H     21.97000000    68.94000000    68.01000000
   N     29.56000000    66.19000000    69.51000000
   C     30.86000000    66.57000000    70.02000000
   C     30.97000000    66.32000000    71.51000000
   O     30.64000000    65.25000000    72.02000000
   C     31.97000000    65.87000000    69.23000000
   C     33.29000000    66.51000000    69.66000000
   C     31.88000000    66.11000000    67.72000000
   H     29.51000000    65.39000000    68.89000000
   H     30.92000000    67.65000000    69.88000000
   H     31.95000000    64.80000000    69.41000000
   H     33.52000000    66.19000000    70.67000000
   H     34.05000000    66.14000000    68.97000000
   H     33.28000000    67.60000000    69.55000000
   H     30.98000000    65.66000000    67.30000000
   H     31.76000000    67.17000000    67.49000000
   H     32.73000000    65.60000000    67.29000000
   N     31.49000000    67.34000000    72.19000000
   C     31.66000000    67.40000000    73.63000000
   C     30.41000000    67.64000000    74.46000000
   O     30.50000000    67.92000000    75.65000000
   C     32.70000000    68.47000000    73.92000000
   C     33.42000000    68.17000000    75.23000000
   N     33.48000000    69.18000000    76.11000000
   O     33.92000000    67.07000000    75.43000000
   H     31.72000000    68.20000000    71.72000000
   H     32.04000000    66.42000000    73.93000000
   H     32.27000000    69.47000000    73.87000000
   H     33.49000000    68.48000000    73.17000000
   H     33.02000000    70.06000000    75.92000000
   H     33.90000000    69.03000000    77.02000000
   N     29.23000000    67.57000000    73.83000000
   C     27.98000000    67.68000000    74.54000000
   C     27.60000000    66.35000000    75.17000000
   O     27.44000000    65.33000000    74.49000000
   C     26.90000000    68.23000000    73.61000000
   C     25.55000000    68.21000000    74.29000000
   C     24.51000000    67.40000000    73.82000000
   C     25.26000000    69.08000000    75.35000000
   C     23.27000000    67.41000000    74.46000000
   C     24.08000000    69.03000000    76.10000000
   C     23.04000000    68.22000000    75.59000000
   O     21.78000000    68.46000000    76.05000000
   H     29.28000000    67.59000000    72.82000000
   H     28.17000000    68.35000000    75.38000000
   H     26.89000000    67.54000000    72.77000000
   H     27.16000000    69.23000000    73.26000000
   H     24.65000000    66.74000000    72.97000000
   H     26.08000000    69.74000000    75.59000000
   H     22.48000000    66.73000000    74.18000000
   H     23.84000000    69.76000000    76.86000000
   H     21.14000000    67.90000000    75.61000000
   N     27.39000000    66.40000000    76.49000000
   C     27.17000000    65.20000000    77.27000000
   C     28.36000000    64.29000000    77.51000000
   O     28.34000000    63.44000000    78.41000000
   C     25.83000000    64.58000000    76.89000000
   C     24.52000000    65.34000000    77.03000000
   C     23.36000000    64.36000000    77.08000000
   O     23.11000000    63.66000000    76.07000000
   O     22.62000000    64.34000000    78.09000000
   H     27.30000000    67.30000000    76.94000000
   H     26.87000000    65.51000000    78.27000000
   H     25.76000000    63.68000000    77.50000000
   H     25.77000000    64.06000000    75.93000000
   H     24.43000000    65.97000000    76.15000000
   H     24.59000000    65.91000000    77.96000000
   N     29.54000000    64.45000000    76.90000000
   C     30.61000000    63.49000000    77.08000000
   C     31.45000000    63.64000000    78.34000000
   O     32.03000000    62.63000000    78.70000000
   C     31.58000000    63.39000000    75.90000000
   C     31.04000000    63.12000000    74.50000000
   C     30.44000000    61.74000000    74.25000000
   O     29.53000000    61.59000000    73.41000000
   O     30.85000000    60.76000000    74.90000000
   H     29.69000000    65.23000000    76.28000000
   H     30.18000000    62.51000000    77.24000000
   H     32.33000000    62.65000000    76.17000000
   H     31.95000000    64.41000000    75.79000000
   H     31.90000000    63.29000000    73.86000000
   H     30.29000000    63.90000000    74.35000000
   N     31.35000000    64.80000000    79.01000000
   C     31.70000000    64.81000000    80.41000000
   H     32.52900000    65.49800000    80.57200000
   H     30.84100000    65.13300000    80.99800000
   H     31.99600000    63.80700000    80.71800000
   H     30.65000000    65.44000000    78.66000000
  Ca     29.87000000    58.92000000    73.11000000
   O     29.84000000    57.23000000    75.75000000
   H     29.65000000    57.67000000    76.59000000
   H     30.57000000    56.65000000    75.95000000
   O     28.24000000    56.74000000    72.44000000
   H     28.43000000    55.82000000    72.62000000
   H     27.33000000    56.86000000    72.69000000
   O     27.85000000    59.46000000    74.76000000
   H     27.14000000    59.87000000    74.26000000
   H     27.80000000    59.87000000    75.62000000

Ca 1.00



