%chk=loop1.holoCaM-CaMKII.run97.water2.chk
%nprocshared=20
%mem=10GB
%nosave
#b3lyp/svp scf=(tight,noincore,xqc) Test 
#IOP(5/87=12) Density=Current Pop=(MK,readradii) iop(6/33=2) iop(6/42=6)

loop1.holoCaM-CaMKII.run97.water2 

   0  1 
   C     36.82000000    23.47000000   -17.86700000
   C     36.43000000    22.08000000   -18.34700000
   O     35.48000000    21.48000000   -17.84700000
   H     37.73700000    23.78200000   -18.36600000
   H     36.02200000    24.17400000   -18.10300000
   H     36.98200000    23.45100000   -16.78900000
   N     37.19000000    21.50000000   -19.28700000
   C     36.98000000    20.21000000   -19.90700000
   C     37.53000000    19.07000000   -19.06700000
   O     38.59000000    18.48000000   -19.26700000
   C     37.47000000    20.29000000   -21.34700000
   C     37.13000000    19.12000000   -22.26700000
   O     37.95000000    18.80000000   -23.15700000
   O     36.09000000    18.44000000   -22.12700000
   H     37.88000000    22.11000000   -19.69700000
   H     35.89000000    20.22000000   -19.92700000
   H     38.55000000    20.36000000   -21.36700000
   H     37.14000000    21.24000000   -21.76700000
   N     36.71000000    18.74000000   -18.05700000
   C     36.94000000    17.67000000   -17.11700000
   C     36.47000000    16.34000000   -17.68700000
   O     37.28000000    15.42000000   -17.61700000
   C     36.25000000    17.99000000   -15.78700000
   C     36.53000000    19.35000000   -15.16700000
   C     35.75000000    19.63000000   -13.88700000
   C     36.30000000    20.79000000   -13.05700000
   N     35.79000000    22.07000000   -13.58700000
   H     35.86000000    19.28000000   -18.00700000
   H     38.00000000    17.65000000   -16.85700000
   H     36.29000000    17.13000000   -15.11700000
   H     35.19000000    17.99000000   -16.01700000
   H     36.38000000    20.16000000   -15.88700000
   H     37.61000000    19.39000000   -14.99700000
   H     35.84000000    18.74000000   -13.25700000
   H     34.72000000    19.86000000   -14.13700000
   H     37.38000000    20.69000000   -13.14700000
   H     36.01000000    20.71000000   -12.01700000
   H     34.87000000    21.97000000   -13.97700000
   H     35.66000000    22.73000000   -12.83700000
   H     36.31000000    22.47000000   -14.35700000
   N     35.37000000    16.21000000   -18.43700000
   C     35.06000000    15.00000000   -19.16700000
   C     35.90000000    14.68000000   -20.39700000
   O     36.08000000    13.52000000   -20.77700000
   C     33.57000000    15.07000000   -19.49700000
   C     33.03000000    16.38000000   -20.06700000
   O     31.81000000    16.59000000   -19.90700000
   O     33.69000000    17.23000000   -20.70700000
   H     34.83000000    17.05000000   -18.56700000
   H     35.22000000    14.15000000   -18.50700000
   H     33.07000000    14.93000000   -18.53700000
   H     33.49000000    14.24000000   -20.19700000
   N     36.53000000    15.76000000   -20.85700000
   C     37.76000000    15.70000000   -21.62700000
   C     37.41000000    15.21000000   -23.02700000
   O     38.22000000    14.44000000   -23.54700000
   H     36.15000000    16.69000000   -20.80700000
   H     38.39000000    15.00000000   -21.07700000
   H     38.23000000    16.68000000   -21.61700000
   N     36.35000000    15.64000000   -23.70700000
   C     36.13000000    15.39000000   -25.11700000
   C     36.84000000    16.31000000   -26.09700000
   O     36.86000000    15.97000000   -27.27700000
   C     34.63000000    15.40000000   -25.41700000
   C     34.04000000    16.62000000   -24.72700000
   O     33.01000000    16.48000000   -24.03700000
   O     34.64000000    17.71000000   -24.77700000
   H     35.72000000    16.22000000   -23.16700000
   H     36.52000000    14.40000000   -25.37700000
   H     34.20000000    14.46000000   -25.07700000
   H     34.49000000    15.35000000   -26.49700000
   N     37.44000000    17.42000000   -25.67700000
   C     38.19000000    18.32000000   -26.52700000
   C     37.34000000    19.53000000   -26.89700000
   O     37.87000000    20.38000000   -27.61700000
   H     37.36000000    17.60000000   -24.67700000
   H     38.53000000    17.78000000   -27.40700000
   H     39.10000000    18.69000000   -26.04700000
   N     36.12000000    19.74000000   -26.40700000
   C     35.34000000    20.96000000   -26.41700000
   C     34.77000000    21.50000000   -25.11700000
   O     34.63000000    20.80000000   -24.11700000
   C     34.26000000    20.85000000   -27.48700000
   C     34.76000000    20.51000000   -28.88700000
   O     33.08000000    20.15000000   -27.15700000
   H     35.75000000    19.01000000   -25.81700000
   H     36.08000000    21.72000000   -26.64700000
   H     33.80000000    21.83000000   -27.61700000
   H     33.26000000    19.23000000   -27.37700000
   H     35.53000000    21.25000000   -29.09700000
   H     35.01000000    19.44000000   -28.91700000
   H     34.00000000    20.80000000   -29.60700000
   N     34.48000000    22.80000000   -25.13700000
   C     33.95000000    23.44000000   -23.94700000
   C     32.57000000    23.99000000   -24.30700000
   O     32.38000000    24.27000000   -25.49700000
   C     34.93000000    24.47000000   -23.40700000
   C     36.11000000    23.77000000   -22.72700000
   C     34.36000000    25.52000000   -22.45700000
   C     37.31000000    24.70000000   -22.51700000
   H     34.85000000    23.43000000   -25.83700000
   H     33.75000000    22.70000000   -23.17700000
   H     35.36000000    25.11000000   -24.17700000
   H     36.41000000    22.94000000   -23.36700000
   H     35.69000000    23.34000000   -21.81700000
   H     33.64000000    26.09000000   -23.03700000
   H     33.86000000    25.12000000   -21.57700000
   H     35.07000000    26.31000000   -22.18700000
   H     38.06000000    24.16000000   -21.93700000
   H     37.78000000    24.95000000   -23.46700000
   H     37.00000000    25.61000000   -22.00700000
   N     31.63000000    23.95000000   -23.36700000
   C     30.21000000    24.17000000   -23.49700000
   C     29.63000000    25.19000000   -22.52700000
   O     30.25000000    25.49000000   -21.51700000
   C     29.43000000    22.87000000   -23.34700000
   C     29.80000000    21.77000000   -24.33700000
   O     29.47000000    22.32000000   -22.04700000
   H     31.92000000    23.48000000   -22.51700000
   H     30.03000000    24.54000000   -24.50700000
   H     28.39000000    23.18000000   -23.48700000
   H     30.35000000    21.94000000   -21.98700000
   H     30.89000000    21.77000000   -24.28700000
   H     29.38000000    20.80000000   -24.04700000
   H     29.53000000    22.08000000   -25.34700000
   N     28.46000000    25.80000000   -22.72700000
   C     27.77000000    26.72000000   -21.83700000
   C     27.60000000    26.07000000   -20.47700000
   O     27.70000000    26.78000000   -19.47700000
   C     26.44000000    27.25000000   -22.35700000
   C     26.70000000    28.08000000   -23.60700000
   O     25.67000000    26.20000000   -22.89700000
   H     27.96000000    25.46000000   -23.53700000
   H     28.37000000    27.61000000   -21.63700000
   H     25.89000000    27.81000000   -21.58700000
   H     24.78000000    26.34000000   -22.56700000
   H     26.88000000    27.43000000   -24.46700000
   H     25.79000000    28.65000000   -23.78700000
   H     27.56000000    28.75000000   -23.56700000
   N     27.47000000    24.74000000   -20.39700000
   C     27.40000000    23.93000000   -19.19700000
   C     28.74000000    23.83000000   -18.47700000
   O     28.71000000    23.89000000   -17.25700000
   C     26.83000000    22.56000000   -19.54700000
   C     25.44000000    22.53000000   -20.18700000
   C     24.38000000    23.35000000   -19.46700000
   C     23.02000000    23.31000000   -20.16700000
   N     22.16000000    24.30000000   -19.49700000
   H     27.39000000    24.24000000   -21.27700000
   H     26.72000000    24.45000000   -18.53700000
   H     26.71000000    21.94000000   -18.65700000
   H     27.49000000    22.03000000   -20.22700000
   H     25.10000000    21.50000000   -20.17700000
   H     25.53000000    22.87000000   -21.21700000
   H     24.74000000    24.38000000   -19.44700000
   H     24.29000000    23.02000000   -18.42700000
   H     22.64000000    22.29000000   -20.19700000
   H     23.12000000    23.65000000   -21.19700000
   H     21.75000000    23.96000000   -18.63700000
   H     22.61000000    25.18000000   -19.28700000
   H     21.29000000    24.49000000   -19.97700000
   N     29.85000000    23.86000000   -19.21700000
   C     31.18000000    23.88000000   -18.66700000
   C     31.68000000    25.25000000   -18.22700000
   O     32.17000000    25.41000000   -17.11700000
   C     32.20000000    23.18000000   -19.56700000
   C     31.84000000    21.70000000   -19.72700000
   C     32.71000000    21.11000000   -20.82700000
   O     33.70000000    20.40000000   -20.55700000
   O     32.35000000    21.32000000   -22.00700000
   H     29.73000000    23.91000000   -20.22700000
   H     31.17000000    23.32000000   -17.72700000
   H     33.22000000    23.18000000   -19.19700000
   H     32.14000000    23.66000000   -20.54700000
   H     30.77000000    21.54000000   -19.86700000
   H     32.05000000    21.14000000   -18.82700000
   N     31.40000000    26.30000000   -19.00700000
   C     31.65000000    27.65000000   -18.54700000
   H     32.53500000    28.04500000   -19.04500000
   H     30.79100000    28.27900000   -18.78100000
   H     31.81300000    27.64300000   -17.46900000
   H     30.82000000    26.13000000   -19.81700000
  Ca     33.68000000    18.85000000   -22.59700000
   O     31.22000000    18.53000000   -21.62700000
   H     31.10000000    17.94000000   -20.87700000
   H     30.33000000    18.70000000   -21.92700000
   O     31.97000000    19.26000000   -24.67700000
   H     31.11000000    19.01000000   -25.00700000
   H     32.28000000    19.92000000   -25.29700000

Ca 1.00



