%chk=loop3.holoCaM-CaMKII.run56.water2.chk
%nprocshared=20
%mem=10GB
%nosave
#b3lyp/svp scf=(tight,noincore,xqc) Test 
#IOP(5/87=12) Density=Current Pop=(MK,readradii) iop(6/33=2) iop(6/42=6)

loop3.holoCaM-CaMKII.run56.water2 

   0  1 
   C     26.22000000    52.41000000    16.21000000
   C     27.16000000    51.47000000    15.45000000
   O     27.62000000    51.90000000    14.40000000
   H     25.26800000    51.90800000    16.38500000
   H     26.66900000    52.67900000    17.16600000
   H     26.05200000    53.31100000    15.62000000
   N     27.36000000    50.25000000    15.94000000
   C     28.28000000    49.30000000    15.34000000
   C     27.52000000    48.47000000    14.32000000
   O     26.67000000    47.62000000    14.55000000
   C     28.81000000    48.46000000    16.50000000
   C     29.75000000    47.34000000    16.08000000
   O     30.14000000    47.28000000    14.89000000
   O     29.95000000    46.45000000    16.93000000
   H     27.02000000    49.96000000    16.85000000
   H     29.09000000    49.88000000    14.89000000
   H     27.99000000    48.03000000    17.06000000
   H     29.35000000    49.05000000    17.25000000
   N     27.79000000    48.88000000    13.07000000
   C     26.83000000    48.74000000    12.00000000
   C     26.73000000    47.27000000    11.60000000
   O     25.74000000    46.87000000    10.99000000
   C     27.36000000    49.65000000    10.90000000
   C     26.40000000    49.69000000     9.71000000
   C     26.54000000    50.97000000     8.89000000
   C     25.56000000    50.98000000     7.72000000
   N     25.69000000    52.06000000     6.73000000
   H     28.59000000    49.49000000    12.99000000
   H     25.86000000    49.19000000    12.20000000
   H     28.25000000    49.19000000    10.47000000
   H     27.49000000    50.65000000    11.32000000
   H     25.38000000    49.65000000    10.09000000
   H     26.57000000    48.85000000     9.04000000
   H     27.57000000    50.98000000     8.52000000
   H     26.40000000    51.85000000     9.52000000
   H     24.58000000    51.18000000     8.15000000
   H     25.59000000    49.99000000     7.29000000
   H     25.44000000    51.70000000     5.82000000
   H     25.31000000    52.93000000     7.07000000
   H     26.69000000    52.10000000     6.57000000
   N     27.67000000    46.38000000    11.94000000
   C     27.72000000    44.97000000    11.62000000
   C     28.01000000    44.17000000    12.88000000
   O     28.16000000    42.95000000    12.74000000
   C     28.78000000    44.76000000    10.54000000
   C     30.17000000    45.19000000    10.98000000
   O     30.39000000    45.84000000    12.02000000
   O     31.12000000    44.87000000    10.22000000
   H     28.41000000    46.74000000    12.53000000
   H     26.72000000    44.68000000    11.31000000
   H     28.45000000    45.25000000     9.63000000
   H     28.91000000    43.71000000    10.27000000
   N     28.10000000    44.78000000    14.06000000
   C     28.20000000    44.04000000    15.30000000
   C     29.53000000    43.37000000    15.59000000
   O     29.57000000    42.40000000    16.35000000
   H     28.02000000    45.79000000    14.14000000
   H     27.54000000    43.18000000    15.15000000
   H     27.81000000    44.68000000    16.09000000
   N     30.63000000    43.77000000    14.94000000
   C     31.96000000    43.24000000    15.12000000
   C     32.59000000    43.46000000    16.49000000
   O     33.65000000    42.92000000    16.80000000
   C     32.85000000    43.66000000    13.95000000
   C     33.62000000    44.95000000    14.22000000
   N     34.95000000    44.93000000    14.11000000
   O     33.06000000    46.01000000    14.50000000
   H     30.54000000    44.42000000    14.17000000
   H     31.87000000    42.16000000    15.06000000
   H     32.31000000    43.92000000    13.04000000
   H     33.60000000    42.89000000    13.81000000
   H     35.45000000    44.11000000    13.81000000
   H     35.49000000    45.78000000    14.22000000
   N     32.01000000    44.38000000    17.27000000
   C     32.53000000    44.87000000    18.52000000
   C     33.16000000    46.25000000    18.60000000
   O     33.45000000    46.68000000    19.72000000
   H     31.19000000    44.78000000    16.84000000
   H     33.23000000    44.11000000    18.88000000
   H     31.72000000    44.78000000    19.25000000
   N     33.22000000    46.97000000    17.48000000
   C     33.96000000    48.21000000    17.29000000
   C     33.24000000    49.17000000    16.36000000
   O     32.73000000    48.75000000    15.32000000
   C     35.35000000    47.90000000    16.75000000
   C     36.25000000    47.01000000    17.58000000
   C     36.67000000    47.47000000    18.83000000
   C     36.62000000    45.74000000    17.12000000
   C     37.38000000    46.61000000    19.68000000
   C     37.31000000    44.88000000    17.98000000
   C     37.73000000    45.32000000    19.25000000
   O     38.49000000    44.58000000    20.10000000
   H     32.93000000    46.58000000    16.60000000
   H     34.09000000    48.72000000    18.25000000
   H     35.80000000    48.89000000    16.66000000
   H     35.33000000    47.51000000    15.74000000
   H     36.51000000    48.50000000    19.13000000
   H     36.31000000    45.37000000    16.15000000
   H     37.88000000    46.94000000    20.58000000
   H     37.61000000    43.90000000    17.65000000
   H     38.56000000    44.90000000    21.01000000
   N     33.19000000    50.48000000    16.58000000
   C     32.67000000    51.56000000    15.77000000
   C     33.80000000    52.30000000    15.06000000
   O     34.80000000    52.53000000    15.72000000
   C     31.84000000    52.58000000    16.56000000
   C     30.76000000    51.88000000    17.39000000
   C     31.15000000    53.55000000    15.61000000
   C     30.46000000    52.79000000    18.57000000
   H     33.56000000    50.74000000    17.49000000
   H     32.03000000    51.13000000    15.00000000
   H     32.53000000    53.12000000    17.20000000
   H     31.10000000    50.93000000    17.80000000
   H     29.95000000    51.73000000    16.68000000
   H     30.64000000    52.92000000    14.88000000
   H     30.55000000    54.15000000    16.29000000
   H     31.85000000    54.28000000    15.19000000
   H     31.32000000    53.13000000    19.15000000
   H     30.01000000    53.74000000    18.27000000
   H     29.72000000    52.30000000    19.20000000
   N     33.65000000    52.67000000    13.79000000
   C     34.55000000    53.48000000    12.99000000
   C     33.92000000    54.80000000    12.59000000
   O     32.70000000    54.96000000    12.53000000
   C     34.80000000    52.67000000    11.72000000
   O     33.63000000    52.58000000    10.92000000
   H     32.71000000    52.64000000    13.41000000
   H     35.48000000    53.63000000    13.54000000
   H     35.12000000    51.66000000    11.96000000
   H     35.61000000    53.14000000    11.17000000
   H     33.69000000    51.71000000    10.52000000
   N     34.77000000    55.73000000    12.14000000
   C     34.19000000    56.97000000    11.65000000
   C     33.25000000    56.87000000    10.46000000
   O     32.31000000    57.64000000    10.29000000
   C     35.32000000    57.95000000    11.34000000
   H     35.75000000    55.49000000    12.14000000
   H     33.59000000    57.36000000    12.47000000
   H     34.87000000    58.87000000    10.98000000
   H     35.96000000    58.29000000    12.15000000
   H     35.98000000    57.58000000    10.55000000
   N     33.33000000    55.83000000     9.63000000
   C     32.36000000    55.46000000     8.62000000
   C     30.98000000    55.11000000     9.14000000
   O     29.97000000    55.55000000     8.61000000
   C     33.02000000    54.47000000     7.66000000
   H     34.08000000    55.19000000     9.83000000
   H     32.27000000    56.32000000     7.95000000
   H     33.93000000    54.87000000     7.21000000
   H     33.30000000    53.52000000     8.13000000
   H     32.35000000    54.13000000     6.87000000
   N     30.97000000    54.48000000    10.32000000
   C     29.73000000    54.01000000    10.90000000
   C     29.13000000    54.98000000    11.92000000
   O     27.93000000    54.95000000    12.18000000
   C     29.90000000    52.66000000    11.59000000
   C     30.33000000    51.54000000    10.64000000
   C     30.70000000    50.27000000    11.39000000
   O     31.39000000    49.40000000    10.81000000
   O     30.32000000    50.05000000    12.56000000
   H     31.83000000    54.22000000    10.80000000
   H     28.95000000    53.84000000    10.16000000
   H     29.03000000    52.34000000    12.16000000
   H     30.70000000    52.78000000    12.32000000
   H     31.17000000    51.81000000    10.01000000
   H     29.43000000    51.36000000    10.04000000
   N     29.95000000    55.92000000    12.39000000
   C     29.49000000    57.07000000    13.15000000
   H     28.48800000    56.87500000    13.53200000
   H     30.16800000    57.24900000    13.98500000
   H     29.46800000    57.94800000    12.50400000
   H     30.91000000    55.67000000    12.25000000
  Ca     31.80000000    47.80000000    12.95000000
   O     34.02000000    49.04000000    12.28000000
   H     34.63000000    49.62000000    12.74000000
   H     34.06000000    49.33000000    11.37000000
   O     32.95000000    46.74000000    10.82000000
   H     33.86000000    46.78000000    10.52000000
   H     32.63000000    45.90000000    10.50000000

Ca 1.00



