%chk=loop1.apoCaM-CA-Ng.Init293.run18.water4.chk
%nprocshared=20
%mem=10GB
%nosave
#b3lyp/svp scf=(tight,noincore,xqc) Test 
#IOP(5/87=12) Density=Current Pop=(MK,readradii) iop(6/33=2) iop(6/42=6)

loop1.apoCaM-CA-Ng.Init293.run18.water4 

   0  1 
   C     41.52000000    -2.31000000    47.36000000
   C     41.08000000    -3.68000000    47.85000000
   O     40.87000000    -4.50000000    46.96000000
   H     42.50700000    -2.38800000    46.90400000
   H     40.80700000    -1.94100000    46.62200000
   H     41.56300000    -1.61900000    48.20200000
   N     40.90000000    -4.01000000    49.13000000
   C     40.47000000    -5.34000000    49.50000000
   C     39.08000000    -5.37000000    50.12000000
   O     38.83000000    -6.03000000    51.12000000
   C     41.52000000    -6.05000000    50.35000000
   C     42.01000000    -5.27000000    51.57000000
   O     41.89000000    -4.03000000    51.61000000
   O     42.68000000    -5.82000000    52.47000000
   H     40.93000000    -3.33000000    49.88000000
   H     40.36000000    -5.96000000    48.61000000
   H     42.35000000    -6.26000000    49.68000000
   H     41.13000000    -7.04000000    50.55000000
   N     38.17000000    -4.53000000    49.62000000
   C     36.84000000    -4.49000000    50.19000000
   C     35.75000000    -4.51000000    49.14000000
   O     35.48000000    -3.43000000    48.61000000
   C     36.76000000    -3.30000000    51.14000000
   C     37.67000000    -3.26000000    52.36000000
   C     37.28000000    -2.26000000    53.44000000
   C     38.29000000    -2.19000000    54.58000000
   N     37.94000000    -1.25000000    55.66000000
   H     38.41000000    -4.02000000    48.77000000
   H     36.58000000    -5.40000000    50.74000000
   H     35.76000000    -3.28000000    51.55000000
   H     36.90000000    -2.31000000    50.70000000
   H     38.67000000    -3.04000000    51.97000000
   H     37.79000000    -4.26000000    52.80000000
   H     36.41000000    -2.66000000    53.96000000
   H     37.14000000    -1.25000000    53.07000000
   H     39.28000000    -1.93000000    54.20000000
   H     38.40000000    -3.21000000    54.96000000
   H     37.03000000    -1.37000000    56.08000000
   H     38.59000000    -1.34000000    56.42000000
   H     38.03000000    -0.36000000    55.20000000
   N     35.32000000    -5.63000000    48.55000000
   C     35.46000000    -7.00000000    48.98000000
   C     34.72000000    -7.43000000    50.23000000
   O     34.54000000    -6.59000000    51.10000000
   C     36.83000000    -7.65000000    48.80000000
   C     37.61000000    -7.27000000    47.55000000
   O     37.23000000    -6.38000000    46.76000000
   O     38.73000000    -7.80000000    47.39000000
   H     34.92000000    -5.43000000    47.64000000
   H     34.87000000    -7.51000000    48.22000000
   H     36.80000000    -8.74000000    48.80000000
   H     37.47000000    -7.38000000    49.64000000
   N     34.10000000    -8.60000000    50.45000000
   C     34.18000000    -9.84000000    49.71000000
   C     34.86000000   -10.98000000    50.46000000
   O     34.60000000   -11.16000000    51.65000000
   H     33.64000000    -8.66000000    51.35000000
   H     34.54000000    -9.72000000    48.69000000
   H     33.15000000   -10.17000000    49.70000000
   N     35.89000000   -11.69000000    50.00000000
   C     36.68000000   -11.46000000    48.80000000
   C     38.09000000   -10.99000000    49.12000000
   O     38.79000000   -10.62000000    48.18000000
   C     36.87000000   -12.75000000    48.02000000
   C     37.54000000   -13.91000000    48.74000000
   O     37.67000000   -14.98000000    48.10000000
   O     37.83000000   -13.80000000    49.95000000
   H     36.22000000   -12.48000000    50.55000000
   H     36.27000000   -10.63000000    48.22000000
   H     37.50000000   -12.51000000    47.16000000
   H     35.87000000   -13.03000000    47.67000000
   N     38.55000000   -10.76000000    50.35000000
   C     39.65000000    -9.92000000    50.79000000
   C     41.06000000   -10.28000000    50.34000000
   O     42.03000000    -9.62000000    50.70000000
   H     37.97000000   -11.07000000    51.12000000
   H     39.62000000    -9.67000000    51.85000000
   H     39.51000000    -8.93000000    50.37000000
   N     41.17000000   -11.20000000    49.38000000
   C     42.43000000   -11.55000000    48.75000000
   C     42.71000000   -10.52000000    47.66000000
   O     41.85000000    -9.94000000    47.01000000
   C     42.28000000   -12.98000000    48.25000000
   C     43.29000000   -13.47000000    47.22000000
   O     41.01000000   -13.17000000    47.66000000
   H     40.34000000   -11.44000000    48.87000000
   H     43.23000000   -11.57000000    49.49000000
   H     42.30000000   -13.62000000    49.13000000
   H     40.82000000   -14.11000000    47.70000000
   H     43.26000000   -14.56000000    47.11000000
   H     43.04000000   -13.15000000    46.21000000
   H     44.30000000   -13.15000000    47.47000000
   N     43.99000000   -10.22000000    47.45000000
   C     44.43000000    -9.17000000    46.56000000
   C     45.74000000    -9.52000000    45.86000000
   O     46.87000000    -9.23000000    46.24000000
   C     44.52000000    -7.82000000    47.27000000
   C     44.92000000    -6.67000000    46.34000000
   C     45.52000000    -7.81000000    48.42000000
   C     44.41000000    -5.31000000    46.79000000
   H     44.66000000   -10.48000000    48.17000000
   H     43.71000000    -8.99000000    45.76000000
   H     43.52000000    -7.64000000    47.65000000
   H     44.46000000    -6.81000000    45.36000000
   H     45.99000000    -6.61000000    46.19000000
   H     45.46000000    -8.71000000    49.03000000
   H     46.54000000    -7.62000000    48.10000000
   H     45.33000000    -6.96000000    49.08000000
   H     44.64000000    -4.60000000    45.99000000
   H     43.35000000    -5.39000000    47.03000000
   H     44.89000000    -4.93000000    47.69000000
   N     45.57000000   -10.27000000    44.77000000
   C     46.62000000   -10.72000000    43.88000000
   C     46.54000000   -10.42000000    42.39000000
   O     47.36000000   -10.84000000    41.57000000
   C     47.00000000   -12.17000000    44.14000000
   C     45.83000000   -13.14000000    43.95000000
   O     47.34000000   -12.26000000    45.51000000
   H     44.61000000   -10.54000000    44.62000000
   H     47.49000000   -10.11000000    44.11000000
   H     47.88000000   -12.39000000    43.53000000
   H     48.04000000   -11.65000000    45.76000000
   H     45.50000000   -12.92000000    42.93000000
   H     46.28000000   -14.12000000    44.03000000
   H     45.01000000   -13.06000000    44.65000000
   N     45.49000000    -9.68000000    42.02000000
   C     45.05000000    -9.33000000    40.68000000
   C     44.46000000   -10.45000000    39.83000000
   O     44.61000000   -11.65000000    40.05000000
   C     46.10000000    -8.48000000    39.99000000
   C     46.74000000    -7.37000000    40.82000000
   O     45.58000000    -7.80000000    38.86000000
   H     44.92000000    -9.28000000    42.74000000
   H     44.24000000    -8.61000000    40.80000000
   H     46.84000000    -9.16000000    39.56000000
   H     46.39000000    -7.52000000    38.44000000
   H     46.01000000    -6.62000000    41.10000000
   H     47.23000000    -7.64000000    41.75000000
   H     47.52000000    -6.82000000    40.29000000
   N     43.79000000   -10.09000000    38.73000000
   C     43.39000000   -10.97000000    37.66000000
   C     41.91000000   -11.30000000    37.73000000
   O     41.69000000   -12.45000000    37.34000000
   C     43.84000000   -10.42000000    36.31000000
   C     45.30000000   -10.78000000    36.02000000
   C     45.74000000   -10.11000000    34.72000000
   C     47.13000000   -10.63000000    34.39000000
   N     47.68000000   -10.24000000    33.08000000
   H     43.76000000    -9.10000000    38.51000000
   H     43.91000000   -11.93000000    37.70000000
   H     43.49000000    -9.40000000    36.16000000
   H     43.33000000   -11.02000000    35.56000000
   H     45.34000000   -11.86000000    35.92000000
   H     45.92000000   -10.35000000    36.81000000
   H     45.81000000    -9.03000000    34.85000000
   H     45.02000000   -10.24000000    33.92000000
   H     47.17000000   -11.71000000    34.53000000
   H     47.80000000   -10.19000000    35.13000000
   H     48.66000000   -10.51000000    33.10000000
   H     47.16000000   -10.60000000    32.29000000
   H     47.66000000    -9.24000000    32.97000000
   N     40.91000000   -10.58000000    38.25000000
   C     40.72000000    -9.26000000    38.80000000
   C     41.47000000    -8.17000000    38.05000000
   O     42.28000000    -7.41000000    38.59000000
   C     41.03000000    -9.17000000    40.29000000
   C     40.23000000   -10.26000000    41.00000000
   C     40.12000000    -9.93000000    42.49000000
   O     39.08000000   -10.00000000    43.18000000
   O     41.12000000    -9.57000000    43.14000000
   H     40.07000000   -11.14000000    38.27000000
   H     39.69000000    -8.97000000    38.60000000
   H     40.57000000    -8.26000000    40.66000000
   H     42.10000000    -9.20000000    40.50000000
   H     40.65000000   -11.26000000    40.85000000
   H     39.19000000   -10.20000000    40.69000000
   N     41.16000000    -8.06000000    36.76000000
   C     41.50000000    -6.88000000    35.99000000
   H     42.50600000    -6.98900000    35.58500000
   H     40.79000000    -6.76300000    35.17100000
   H     41.46100000    -6.00200000    36.63400000
   H     40.65000000    -8.83000000    36.36000000
  Ca     39.69000000    -9.26700000    45.55000000
   O     40.13000000   -11.82700000    45.33000000
   H     40.46000000   -12.37700000    44.61000000
   H     40.35000000   -12.31700000    46.12000000
   O     41.46000000    -7.31700000    45.56000000
   H     41.27000000    -6.77700000    46.33000000
   H     42.32000000    -7.02700000    45.27000000
   O     38.81000000    -7.32700000    44.05000000
   H     38.88000000    -6.41700000    44.33000000
   H     38.50000000    -7.28700000    43.15000000
   O     36.81000000    -9.62700000    45.54000000
   H     36.48000000    -8.78700000    45.21000000
   H     36.04000000   -10.18700000    45.57000000

Ca 1.00



