%chk=loop3.apoCaM-CA-Ng.Init293.run95.water5.chk
%nprocshared=20
%mem=10GB
%nosave
#b3lyp/svp scf=(tight,noincore,xqc) Test 
#IOP(5/87=12) Density=Current Pop=(MK,readradii) iop(6/33=2) iop(6/42=6)

loop3.apoCaM-CA-Ng.Init293.run95.water5 

   0  1 
   C     95.86000000    77.84000000    18.94000000
   C     97.28000000    78.14000000    18.48000000
   O     97.59000000    79.10000000    17.78000000
   H     95.18100000    77.90800000    18.09000000
   H     95.81800000    76.83400000    19.35800000
   H     95.56300000    78.56300000    19.70000000
   N     98.25000000    77.23000000    18.65000000
   C     99.57000000    77.25000000    18.06000000
   C    100.60000000    76.42000000    18.82000000
   O    100.27000000    75.57000000    19.63000000
   C     99.47000000    76.88000000    16.58000000
   C    100.61000000    77.01000000    15.59000000
   O    101.69000000    77.55000000    15.91000000
   O    100.43000000    76.58000000    14.43000000
   H     98.05000000    76.38000000    19.17000000
   H     99.88000000    78.29000000    18.00000000
   H     98.69000000    77.54000000    16.19000000
   H     98.95000000    75.93000000    16.44000000
   N    101.86000000    76.78000000    18.58000000
   C    103.11000000    76.22000000    19.07000000
   C    103.43000000    74.81000000    18.58000000
   O    102.73000000    74.31000000    17.71000000
   C    103.05000000    76.39000000    20.58000000
   C    104.40000000    76.67000000    21.22000000
   C    104.30000000    76.82000000    22.74000000
   C    103.93000000    75.60000000    23.58000000
   N    104.58000000    74.39000000    23.07000000
   H    102.04000000    77.44000000    17.83000000
   H    103.85000000    76.87000000    18.61000000
   H    102.60000000    75.45000000    20.90000000
   H    102.39000000    77.21000000    20.88000000
   H    104.75000000    77.62000000    20.82000000
   H    105.20000000    75.98000000    20.97000000
   H    103.59000000    77.64000000    22.88000000
   H    105.29000000    77.15000000    23.07000000
   H    102.90000000    75.26000000    23.55000000
   H    104.19000000    75.70000000    24.64000000
   H    104.00000000    74.01000000    22.34000000
   H    105.48000000    74.61000000    22.66000000
   H    104.71000000    73.68000000    23.77000000
   N    104.55000000    74.23000000    19.02000000
   C    104.97000000    72.84000000    18.98000000
   C    104.39000000    72.02000000    20.12000000
   O    103.77000000    72.59000000    21.02000000
   C    106.50000000    72.82000000    19.04000000
   C    107.14000000    73.68000000    20.12000000
   O    106.49000000    74.02000000    21.14000000
   O    108.38000000    73.82000000    20.11000000
   H    104.97000000    74.81000000    19.73000000
   H    104.58000000    72.36000000    18.08000000
   H    106.91000000    73.18000000    18.10000000
   H    106.83000000    71.79000000    19.22000000
   N    104.42000000    70.70000000    19.98000000
   C    104.14000000    69.71000000    21.00000000
   C    105.10000000    69.72000000    22.19000000
   O    106.19000000    70.28000000    22.15000000
   H    104.88000000    70.37000000    19.15000000
   H    104.13000000    68.74000000    20.49000000
   H    103.14000000    69.84000000    21.41000000
   N    104.62000000    69.09000000    23.26000000
   C    105.41000000    68.83000000    24.45000000
   C    105.20000000    67.41000000    24.95000000
   O    105.36000000    67.19000000    26.15000000
   C    105.03000000    69.86000000    25.52000000
   C    105.67000000    71.22000000    25.27000000
   N    106.99000000    71.33000000    25.45000000
   O    105.08000000    72.23000000    24.89000000
   H    103.72000000    68.64000000    23.20000000
   H    106.48000000    68.73000000    24.25000000
   H    105.38000000    69.57000000    26.51000000
   H    103.96000000    70.01000000    25.56000000
   H    107.64000000    70.64000000    25.80000000
   H    107.40000000    72.22000000    25.20000000
   N    104.70000000    66.44000000    24.18000000
   C    104.49000000    65.10000000    24.67000000
   C    103.37000000    65.09000000    25.70000000
   O    102.31000000    65.68000000    25.48000000
   H    104.30000000    66.61000000    23.27000000
   H    105.43000000    64.87000000    25.18000000
   H    104.29000000    64.37000000    23.89000000
   N    103.50000000    64.36000000    26.81000000
   C    102.56000000    64.46000000    27.90000000
   C    102.28000000    65.81000000    28.56000000
   O    101.56000000    65.91000000    29.55000000
   C    101.31000000    63.65000000    27.55000000
   C    100.41000000    63.18000000    28.67000000
   C    100.69000000    61.98000000    29.34000000
   C     99.30000000    63.91000000    29.10000000
   C     99.99000000    61.59000000    30.49000000
   C     98.56000000    63.57000000    30.24000000
   C     99.00000000    62.46000000    30.98000000
   O     98.32000000    62.06000000    32.10000000
   H    104.13000000    63.57000000    26.77000000
   H    103.05000000    63.94000000    28.72000000
   H    101.68000000    62.71000000    27.13000000
   H    100.68000000    64.11000000    26.79000000
   H    101.55000000    61.39000000    29.06000000
   H     99.10000000    64.80000000    28.52000000
   H    100.12000000    60.65000000    31.01000000
   H     97.73000000    64.15000000    30.63000000
   H     97.63000000    62.69000000    32.33000000
   N    102.68000000    66.92000000    27.94000000
   C    102.93000000    68.24000000    28.48000000
   C    103.93000000    68.24000000    29.63000000
   O    104.90000000    68.98000000    29.51000000
   C    101.63000000    68.96000000    28.81000000
   C    100.70000000    68.97000000    27.60000000
   C    101.94000000    70.38000000    29.27000000
   C    101.16000000    69.63000000    26.30000000
   H    103.03000000    66.80000000    27.00000000
   H    103.33000000    68.88000000    27.70000000
   H    101.15000000    68.43000000    29.63000000
   H     99.78000000    69.49000000    27.83000000
   H    100.31000000    67.95000000    27.53000000
   H    100.97000000    70.81000000    29.53000000
   H    102.47000000    70.50000000    30.21000000
   H    102.43000000    71.07000000    28.57000000
   H    100.34000000    69.50000000    25.59000000
   H    101.34000000    70.70000000    26.42000000
   H    102.01000000    69.04000000    25.97000000
   N    103.54000000    67.62000000    30.74000000
   C    104.19000000    67.60000000    32.03000000
   C    104.27000000    68.98000000    32.66000000
   O    105.28000000    69.31000000    33.27000000
   C    103.40000000    66.70000000    32.97000000
   O    102.08000000    67.14000000    33.23000000
   H    102.62000000    67.20000000    30.78000000
   H    105.21000000    67.23000000    31.92000000
   H    103.89000000    66.84000000    33.94000000
   H    103.42000000    65.67000000    32.63000000
   H    101.59000000    66.35000000    33.45000000
   N    103.27000000    69.85000000    32.46000000
   C    103.19000000    71.19000000    33.02000000
   C    104.25000000    72.10000000    32.41000000
   O    104.47000000    73.18000000    32.96000000
   C    103.08000000    71.25000000    34.54000000
   H    102.43000000    69.49000000    32.04000000
   H    102.23000000    71.59000000    32.72000000
   H    102.65000000    72.20000000    34.86000000
   H    102.36000000    70.55000000    34.97000000
   H    104.07000000    71.09000000    34.97000000
   N    104.78000000    71.80000000    31.22000000
   C    105.76000000    72.57000000    30.48000000
   C    105.08000000    73.60000000    29.60000000
   O    103.93000000    73.44000000    29.18000000
   C    106.58000000    71.70000000    29.53000000
   H    104.40000000    70.98000000    30.77000000
   H    106.39000000    73.08000000    31.21000000
   H    107.08000000    70.88000000    30.05000000
   H    105.92000000    71.19000000    28.84000000
   H    107.38000000    72.20000000    28.98000000
   N    105.71000000    74.74000000    29.33000000
   C    105.32000000    75.76000000    28.38000000
   C    103.94000000    76.40000000    28.48000000
   O    103.45000000    76.99000000    27.51000000
   C    105.67000000    75.30000000    26.96000000
   C    107.15000000    75.37000000    26.59000000
   C    107.51000000    74.85000000    25.21000000
   O    107.04000000    75.34000000    24.15000000
   O    108.24000000    73.87000000    25.00000000
   H    106.62000000    74.87000000    29.76000000
   H    105.99000000    76.60000000    28.55000000
   H    105.21000000    75.98000000    26.25000000
   H    105.31000000    74.28000000    26.85000000
   H    107.66000000    74.76000000    27.34000000
   H    107.52000000    76.38000000    26.76000000
   N    103.29000000    76.39000000    29.64000000
   C    102.00000000    77.03000000    29.84000000
   H    101.25800000    76.27600000    30.10400000
   H    102.07700000    77.76100000    30.64500000
   H    101.69600000    77.53200000    28.92100000
   H    103.88000000    76.34000000    30.46000000
  Ca    108.92400000    74.27000000    22.64000000
   O    110.40400000    76.29000000    23.86000000
   H    110.55400000    76.66000000    24.73000000
   H    110.30400000    77.06000000    23.29000000
   O    108.41400000    76.76000000    21.61000000
   H    107.76400000    77.29000000    22.07000000
   H    109.01400000    77.40000000    21.23000000
   O    110.83400000    74.92000000    20.96000000
   H    111.64400000    75.17000000    21.41000000
   H    111.10400000    74.79000000    20.05000000
   O    108.50400000    71.66000000    22.34000000
   H    107.70400000    71.19000000    22.14000000
   H    109.14400000    70.98000000    22.55000000
   O    111.28400000    73.46000000    23.71000000
   H    111.67400000    73.76000000    24.53000000
   H    112.01400000    73.38000000    23.10000000

Ca 1.00



