%chk=loop3.holoCaM.run59.water2.chk
%nprocshared=20
%mem=10GB
%nosave
#b3lyp/svp scf=(tight,noincore,xqc) Test 
#IOP(5/87=12) Density=Current Pop=(MK,readradii) iop(6/33=2) iop(6/42=6)

loop3.holoCaM.run59.water2 

   0  1 
   C     69.23000000    61.70000000     3.13000000
   C     69.28000000    62.50000000     4.42000000
   O     69.88000000    61.97000000     5.35000000
   H     69.06600000    62.37500000     2.29000000
   H     70.17400000    61.17200000     2.99200000
   H     68.41400000    60.97900000     3.18000000
   N     68.49000000    63.58000000     4.47000000
   C     68.11000000    64.42000000     5.58000000
   C     67.08000000    63.66000000     6.40000000
   O     66.08000000    63.18000000     5.88000000
   C     67.66000000    65.78000000     5.05000000
   C     67.24000000    66.76000000     6.14000000
   O     66.78000000    67.85000000     5.72000000
   O     67.31000000    66.44000000     7.34000000
   H     68.05000000    63.82000000     3.59000000
   H     68.92000000    64.67000000     6.27000000
   H     66.90000000    65.68000000     4.28000000
   H     68.53000000    66.30000000     4.65000000
   N     67.40000000    63.44000000     7.68000000
   C     66.66000000    62.58000000     8.59000000
   C     65.57000000    63.30000000     9.36000000
   O     64.64000000    62.64000000     9.82000000
   C     67.55000000    61.81000000     9.57000000
   C     68.44000000    60.80000000     8.86000000
   C     67.63000000    59.67000000     8.25000000
   C     68.60000000    58.74000000     7.53000000
   N     67.93000000    57.66000000     6.78000000
   H     68.24000000    63.84000000     8.08000000
   H     66.00000000    61.89000000     8.07000000
   H     66.90000000    61.17000000    10.17000000
   H     68.05000000    62.52000000    10.22000000
   H     69.21000000    60.40000000     9.52000000
   H     68.98000000    61.21000000     8.00000000
   H     66.84000000    60.04000000     7.59000000
   H     67.19000000    59.17000000     9.11000000
   H     69.22000000    58.31000000     8.31000000
   H     69.26000000    59.36000000     6.93000000
   H     67.48000000    58.02000000     5.96000000
   H     68.64000000    57.02000000     6.45000000
   H     67.34000000    57.13000000     7.41000000
   N     65.43000000    64.63000000     9.44000000
   C     64.34000000    65.37000000    10.05000000
   C     63.68000000    66.38000000     9.12000000
   O     62.58000000    66.87000000     9.37000000
   C     64.77000000    66.02000000    11.36000000
   C     65.76000000    67.15000000    11.12000000
   O     65.57000000    68.24000000    11.71000000
   O     66.62000000    66.98000000    10.23000000
   H     66.14000000    65.19000000     8.98000000
   H     63.58000000    64.66000000    10.39000000
   H     65.16000000    65.26000000    12.03000000
   H     63.90000000    66.35000000    11.92000000
   N     64.29000000    66.76000000     7.99000000
   C     63.81000000    67.63000000     6.94000000
   C     63.91000000    69.06000000     7.47000000
   O     62.87000000    69.51000000     7.96000000
   H     65.27000000    66.53000000     7.94000000
   H     62.78000000    67.40000000     6.65000000
   H     64.44000000    67.55000000     6.05000000
   N     65.07000000    69.71000000     7.42000000
   C     65.41000000    71.06000000     7.85000000
   C     66.28000000    71.76000000     6.83000000
   O     66.68000000    72.91000000     7.01000000
   C     65.98000000    71.02000000     9.27000000
   C     67.49000000    70.84000000     9.31000000
   N     68.12000000    71.69000000    10.12000000
   O     68.11000000    69.90000000     8.82000000
   H     65.80000000    69.19000000     6.97000000
   H     64.49000000    71.65000000     7.87000000
   H     65.46000000    70.28000000     9.88000000
   H     65.74000000    71.97000000     9.73000000
   H     67.61000000    72.51000000    10.42000000
   H     69.03000000    71.49000000    10.51000000
   N     66.66000000    71.09000000     5.74000000
   C     67.56000000    71.53000000     4.69000000
   C     69.05000000    71.21000000     4.82000000
   O     69.86000000    71.73000000     4.06000000
   H     66.39000000    70.11000000     5.71000000
   H     67.42000000    72.60000000     4.53000000
   H     67.14000000    71.11000000     3.78000000
   N     69.46000000    70.40000000     5.79000000
   C     70.84000000    70.19000000     6.19000000
   C     71.12000000    68.77000000     6.66000000
   O     70.21000000    68.14000000     7.17000000
   C     71.20000000    71.13000000     7.34000000
   C     71.02000000    72.59000000     7.03000000
   C     69.85000000    73.33000000     7.28000000
   C     72.06000000    73.24000000     6.36000000
   C     69.71000000    74.67000000     6.91000000
   C     71.96000000    74.60000000     6.05000000
   C     70.79000000    75.34000000     6.30000000
   O     70.72000000    76.66000000     5.96000000
   H     68.74000000    69.86000000     6.24000000
   H     71.51000000    70.41000000     5.36000000
   H     72.25000000    71.03000000     7.63000000
   H     70.53000000    70.84000000     8.15000000
   H     69.09000000    72.78000000     7.83000000
   H     73.00000000    72.75000000     6.18000000
   H     68.79000000    75.20000000     7.07000000
   H     72.74000000    75.16000000     5.56000000
   H     71.32000000    77.05000000     5.32000000
   N     72.30000000    68.24000000     6.33000000
   C     72.88000000    66.98000000     6.77000000
   C     73.85000000    67.28000000     7.91000000
   O     74.44000000    68.35000000     7.86000000
   C     73.37000000    66.17000000     5.57000000
   C     72.18000000    65.61000000     4.80000000
   C     74.44000000    65.14000000     5.94000000
   C     72.72000000    65.09000000     3.47000000
   H     72.92000000    68.87000000     5.84000000
   H     72.15000000    66.39000000     7.31000000
   H     73.83000000    66.92000000     4.92000000
   H     71.43000000    66.38000000     4.65000000
   H     71.71000000    64.79000000     5.34000000
   H     74.95000000    64.75000000     5.06000000
   H     75.15000000    65.70000000     6.55000000
   H     73.97000000    64.33000000     6.49000000
   H     71.89000000    64.96000000     2.78000000
   H     73.46000000    65.76000000     3.02000000
   H     73.19000000    64.12000000     3.63000000
   N     73.92000000    66.36000000     8.88000000
   C     74.77000000    66.44000000    10.05000000
   C     75.47000000    65.15000000    10.45000000
   O     75.01000000    64.12000000     9.94000000
   C     73.92000000    66.97000000    11.20000000
   O     72.91000000    66.12000000    11.71000000
   H     73.32000000    65.55000000     8.78000000
   H     75.62000000    67.10000000     9.83000000
   H     73.40000000    67.85000000    10.82000000
   H     74.55000000    67.41000000    11.97000000
   H     72.18000000    66.02000000    11.10000000
   N     76.45000000    65.15000000    11.35000000
   C     77.32000000    64.04000000    11.68000000
   C     76.61000000    62.69000000    11.76000000
   O     77.03000000    61.72000000    11.14000000
   C     77.98000000    64.40000000    13.01000000
   H     76.74000000    66.04000000    11.72000000
   H     78.06000000    64.05000000    10.89000000
   H     77.33000000    64.11000000    13.83000000
   H     79.02000000    64.08000000    12.96000000
   H     78.12000000    65.48000000    13.11000000
   N     75.51000000    62.62000000    12.52000000
   C     74.72000000    61.43000000    12.73000000
   C     73.85000000    60.91000000    11.59000000
   O     73.56000000    59.72000000    11.53000000
   C     73.92000000    61.60000000    14.01000000
   H     75.25000000    63.46000000    13.02000000
   H     75.47000000    60.67000000    12.95000000
   H     74.52000000    62.16000000    14.72000000
   H     72.95000000    62.06000000    13.81000000
   H     73.76000000    60.59000000    14.40000000
   N     73.48000000    61.84000000    10.70000000
   C     72.75000000    61.53000000     9.49000000
   C     73.67000000    61.07000000     8.37000000
   O     73.37000000    60.08000000     7.71000000
   C     72.03000000    62.79000000     9.01000000
   C     71.06000000    63.34000000    10.06000000
   C     70.53000000    64.70000000     9.63000000
   O     69.48000000    64.83000000     8.97000000
   O     71.13000000    65.77000000     9.87000000
   H     73.95000000    62.73000000    10.69000000
   H     72.00000000    60.77000000     9.73000000
   H     71.38000000    62.56000000     8.16000000
   H     72.69000000    63.57000000     8.66000000
   H     71.54000000    63.52000000    11.03000000
   H     70.25000000    62.63000000    10.19000000
   N     74.88000000    61.62000000     8.24000000
   C     76.03000000    61.08000000     7.55000000
   H     76.88100000    61.05100000     8.23100000
   H     75.80600000    60.07100000     7.20500000
   H     76.27100000    61.71200000     6.69500000
   H     75.08000000    62.40000000     8.84000000
  Ca     68.92000000    67.33000000     9.32000000
   O     68.61000000    68.52000000    11.62000000
   H     68.09000000    69.11000000    12.16000000
   H     69.43000000    68.41000000    12.10000000
   O     71.25000000    68.62000000     9.94000000
   H     72.03000000    68.17000000    10.27000000
   H     71.32000000    69.51000000    10.28000000

Ca 1.00



