%chk=loop4.apoCaM-CA-Ng.Init31.run65.water4.chk
%nprocshared=20
%mem=10GB
%nosave
#b3lyp/svp scf=(tight,noincore,xqc) Test 
#IOP(5/87=12) Density=Current Pop=(MK,readradii) iop(6/33=2) iop(6/42=6)

loop4.apoCaM-CA-Ng.Init31.run65.water4 

   -3  1 
   C    101.17000000    54.67000000    27.37000000
   C    102.00000000    55.21000000    26.21000000
   O    101.49000000    55.77000000    25.24000000
   H    100.18700000    54.37100000    27.00500000
   H    101.67300000    53.80700000    27.80600000
   H    101.05500000    55.44600000    28.12700000
   N    103.30000000    54.89000000    26.17000000
   C    104.09000000    54.53000000    27.33000000
   C    104.44000000    55.65000000    28.30000000
   O    104.96000000    55.40000000    29.38000000
   C    105.36000000    53.84000000    26.86000000
   C    105.13000000    52.60000000    26.00000000
   O    105.73000000    52.47000000    24.91000000
   O    104.31000000    51.72000000    26.32000000
   H    103.80000000    55.09000000    25.32000000
   H    103.58000000    53.68000000    27.79000000
   H    106.03000000    53.69000000    27.71000000
   H    105.93000000    54.59000000    26.32000000
   N    104.29000000    56.93000000    27.93000000
   C    104.55000000    58.07000000    28.78000000
   C    106.03000000    58.19000000    29.13000000
   O    106.32000000    58.29000000    30.32000000
   C    103.98000000    59.35000000    28.18000000
   C    102.47000000    59.44000000    27.93000000
   C    104.33000000    60.50000000    29.11000000
   C    101.56000000    58.95000000    29.05000000
   H    104.01000000    57.12000000    26.97000000
   H    104.06000000    57.87000000    29.73000000
   H    104.61000000    59.48000000    27.30000000
   H    102.37000000    58.85000000    27.02000000
   H    102.25000000    60.50000000    27.77000000
   H    103.83000000    61.43000000    28.87000000
   H    104.26000000    60.16000000    30.15000000
   H    105.41000000    60.65000000    29.13000000
   H    100.53000000    59.14000000    28.75000000
   H    101.56000000    57.87000000    29.22000000
   H    101.71000000    59.58000000    29.93000000
   N    106.90000000    58.17000000    28.12000000
   C    108.33000000    58.25000000    28.32000000
   C    109.03000000    57.15000000    27.53000000
   O    110.25000000    57.12000000    27.44000000
   C    108.90000000    59.64000000    28.03000000
   C    110.22000000    59.80000000    28.77000000
   O    111.08000000    60.38000000    28.06000000
   O    110.41000000    59.41000000    29.94000000
   H    106.54000000    58.08000000    27.18000000
   H    108.49000000    58.05000000    29.38000000
   H    108.27000000    60.47000000    28.36000000
   H    108.98000000    59.85000000    26.96000000
   N    108.33000000    56.24000000    26.85000000
   C    108.89000000    55.52000000    25.73000000
   C    109.29000000    56.35000000    24.53000000
   O    108.60000000    57.32000000    24.22000000
   H    107.34000000    56.24000000    27.07000000
   H    108.29000000    54.64000000    25.47000000
   H    109.89000000    55.18000000    26.00000000
   N    110.42000000    56.10000000    23.85000000
   C    110.93000000    56.80000000    22.69000000
   C    112.35000000    57.32000000    22.88000000
   O    113.14000000    56.64000000    23.53000000
   C    110.81000000    55.73000000    21.61000000
   C    111.78000000    54.57000000    21.82000000
   O    112.81000000    54.50000000    21.12000000
   O    111.55000000    53.64000000    22.62000000
   H    110.73000000    55.15000000    23.97000000
   H    110.31000000    57.68000000    22.48000000
   H    111.13000000    56.19000000    20.68000000
   H    109.80000000    55.37000000    21.45000000
   N    112.71000000    58.50000000    22.38000000
   C    112.03000000    59.28000000    21.37000000
   C    112.75000000    60.60000000    21.12000000
   O    113.39000000    61.08000000    22.05000000
   H    113.57000000    58.84000000    22.80000000
   H    111.03000000    59.57000000    21.70000000
   H    111.93000000    58.68000000    20.47000000
   N    112.56000000    61.17000000    19.92000000
   C    111.65000000    60.78000000    18.87000000
   C    110.16000000    60.65000000    19.17000000
   O    109.68000000    61.08000000    20.22000000
   C    112.17000000    59.69000000    17.94000000
   C    113.68000000    59.57000000    17.77000000
   C    114.30000000    60.82000000    17.15000000
   N    115.47000000    61.35000000    17.51000000
   O    113.68000000    61.51000000    16.34000000
   H    112.96000000    62.10000000    19.85000000
   H    111.66000000    61.61000000    18.16000000
   H    111.79000000    59.80000000    16.92000000
   H    111.81000000    58.79000000    18.43000000
   H    113.90000000    58.78000000    17.06000000
   H    114.20000000    59.40000000    18.71000000
   H    116.10000000    60.79000000    18.08000000
   H    115.71000000    62.23000000    17.08000000
   N    109.43000000    60.19000000    18.15000000
   C    108.00000000    59.99000000    18.04000000
   C    107.39000000    60.30000000    16.68000000
   O    108.12000000    60.43000000    15.70000000
   C    107.74000000    58.52000000    18.35000000
   C    107.96000000    58.23000000    19.83000000
   C    108.54000000    57.49000000    17.55000000
   H    109.98000000    59.83000000    17.39000000
   H    107.33000000    60.59000000    18.65000000
   H    106.71000000    58.26000000    18.11000000
   H    109.01000000    58.09000000    20.07000000
   H    107.57000000    59.01000000    20.48000000
   H    107.45000000    57.33000000    20.17000000
   H    109.50000000    57.25000000    18.01000000
   H    107.95000000    56.57000000    17.48000000
   H    108.71000000    57.87000000    16.54000000
   N    106.07000000    60.49000000    16.70000000
   C    105.23000000    61.03000000    15.64000000
   C    104.40000000    59.99000000    14.89000000
   O    103.42000000    60.29000000    14.22000000
   C    104.45000000    62.15000000    16.32000000
   C    103.88000000    63.06000000    15.24000000
   N    102.55000000    63.13000000    15.12000000
   O    104.69000000    63.63000000    14.52000000
   H    105.61000000    60.10000000    17.51000000
   H    105.88000000    61.51000000    14.91000000
   H    105.09000000    62.67000000    17.02000000
   H    103.60000000    61.79000000    16.90000000
   H    101.97000000    62.67000000    15.81000000
   H    102.15000000    63.56000000    14.30000000
   N    104.88000000    58.75000000    14.87000000
   C    104.36000000    57.58000000    14.18000000
   C    104.20000000    56.35000000    15.07000000
   O    104.42000000    56.46000000    16.27000000
   C    105.21000000    57.30000000    12.94000000
   C    106.65000000    56.93000000    13.20000000
   C    107.01000000    55.61000000    13.50000000
   C    107.67000000    57.89000000    13.23000000
   C    108.32000000    55.30000000    13.88000000
   C    109.02000000    57.60000000    13.48000000
   C    109.33000000    56.28000000    13.84000000
   O    110.64000000    56.00000000    14.05000000
   H    105.64000000    58.57000000    15.51000000
   H    103.38000000    57.77000000    13.75000000
   H    105.20000000    58.15000000    12.26000000
   H    104.79000000    56.44000000    12.43000000
   H    106.28000000    54.83000000    13.63000000
   H    107.38000000    58.91000000    13.03000000
   H    108.64000000    54.30000000    14.13000000
   H    109.78000000    58.37000000    13.51000000
   H    110.75000000    55.08000000    14.32000000
   N    103.75000000    55.24000000    14.48000000
   C    103.66000000    54.01000000    15.23000000
   C    102.44000000    54.00000000    16.14000000
   O    101.30000000    53.82000000    15.70000000
   C    103.65000000    52.85000000    14.24000000
   C    103.92000000    51.57000000    15.03000000
   C    103.97000000    50.37000000    14.10000000
   O    104.63000000    50.38000000    13.04000000
   O    103.30000000    49.35000000    14.40000000
   H    103.34000000    55.32000000    13.56000000
   H    104.61000000    53.96000000    15.77000000
   H    104.45000000    52.96000000    13.51000000
   H    102.68000000    52.75000000    13.75000000
   H    103.08000000    51.41000000    15.70000000
   H    104.81000000    51.74000000    15.63000000
   N    102.72000000    54.15000000    17.43000000
   C    101.67000000    54.19000000    18.43000000
   C    101.22000000    55.62000000    18.71000000
   O    100.46000000    55.88000000    19.63000000
   C    102.00000000    53.47000000    19.73000000
   C    102.62000000    52.08000000    19.58000000
   C    102.98000000    51.45000000    20.92000000
   O    102.08000000    51.18000000    21.74000000
   O    104.19000000    51.32000000    21.19000000
   H    103.70000000    54.11000000    17.65000000
   H    100.79000000    53.69000000    18.02000000
   H    101.12000000    53.45000000    20.37000000
   H    102.77000000    54.06000000    20.23000000
   H    103.52000000    52.17000000    18.99000000
   H    101.96000000    51.43000000    19.00000000
   N    101.58000000    56.56000000    17.83000000
   C    101.11000000    57.93000000    17.90000000
   H    100.14600000    57.95700000    18.40800000
   H    101.82900000    58.53300000    18.45400000
   H    101.00100000    58.32900000    16.89200000
   H    102.17000000    56.39000000    17.03000000
  Ca    103.52300000    50.91000000    23.83000000
   O    103.43300000    48.38000000    22.72000000
   H    102.92300000    47.96000000    22.03000000
   H    104.02300000    47.70000000    23.04000000
   O    103.96300000    48.69000000    25.65000000
   H    104.52300000    48.06000000    26.09000000
   H    103.10300000    48.28000000    25.63000000
   O    103.01300000    53.49000000    23.20000000
   H    103.76300000    54.08000000    23.16000000
   H    102.26300000    54.01000000    22.91000000
   O    106.29300000    49.55000000    23.59000000
   H    107.18300000    49.25000000    23.79000000
   H    105.76300000    48.75000000    23.59000000

Ca 1.00



