%chk=loop1.holoCaM-CaMKII.run39.water2.chk
%nprocshared=20
%mem=10GB
%nosave
#b3lyp/svp scf=(tight,noincore,xqc) Test 
#IOP(5/87=12) Density=Current Pop=(MK,readradii) iop(6/33=2) iop(6/42=6)

loop1.holoCaM-CaMKII.run39.water2 

   0  1 
   C     85.82000000    40.24000000     1.34700000
   C     85.20000000    39.04000000     0.64700000
   O     84.30000000    38.47000000     1.24700000
   H     86.74600000    40.51600000     0.84200000
   H     85.12500000    41.07900000     1.31500000
   H     86.03500000    39.98500000     2.38500000
   N     85.73000000    38.56000000    -0.48300000
   C     85.38000000    37.28000000    -1.07300000
   C     86.07000000    36.12000000    -0.37300000
   O     87.30000000    36.03000000    -0.40300000
   C     85.92000000    37.43000000    -2.49300000
   C     85.48000000    36.25000000    -3.35300000
   O     85.96000000    36.16000000    -4.50300000
   O     84.69000000    35.43000000    -2.84300000
   H     86.43000000    39.12000000    -0.95300000
   H     84.30000000    37.12000000    -1.06300000
   H     87.00000000    37.50000000    -2.40300000
   H     85.54000000    38.33000000    -2.98300000
   N     85.31000000    35.24000000     0.27700000
   C     85.89000000    34.30000000     1.21700000
   C     86.18000000    32.92000000     0.62700000
   O     87.15000000    32.27000000     1.00700000
   C     84.99000000    34.05000000     2.41700000
   C     85.51000000    34.78000000     3.64700000
   C     85.50000000    36.30000000     3.52700000
   C     86.32000000    37.08000000     4.55700000
   N     87.75000000    36.74000000     4.57700000
   H     84.31000000    35.27000000     0.18700000
   H     86.85000000    34.65000000     1.58700000
   H     85.07000000    32.98000000     2.60700000
   H     83.93000000    34.23000000     2.22700000
   H     86.57000000    34.50000000     3.67700000
   H     84.99000000    34.44000000     4.54700000
   H     84.45000000    36.56000000     3.64700000
   H     85.81000000    36.67000000     2.54700000
   H     85.82000000    36.97000000     5.51700000
   H     86.19000000    38.11000000     4.23700000
   H     87.91000000    35.89000000     5.08700000
   H     88.13000000    36.43000000     3.69700000
   H     88.29000000    37.47000000     5.02700000
   N     85.45000000    32.57000000    -0.43300000
   C     85.76000000    31.55000000    -1.40300000
   C     86.55000000    31.88000000    -2.66300000
   O     86.96000000    31.05000000    -3.47300000
   C     84.63000000    30.57000000    -1.70300000
   C     83.34000000    31.22000000    -2.20300000
   O     83.48000000    32.34000000    -2.74300000
   O     82.22000000    30.67000000    -2.22300000
   H     84.77000000    33.25000000    -0.78300000
   H     86.42000000    30.89000000    -0.83300000
   H     84.55000000    30.18000000    -0.69300000
   H     84.96000000    29.71000000    -2.28300000
   N     86.94000000    33.14000000    -2.86300000
   C     87.83000000    33.60000000    -3.91300000
   C     87.33000000    33.40000000    -5.33300000
   O     88.14000000    33.37000000    -6.25300000
   H     86.69000000    33.83000000    -2.16300000
   H     88.75000000    33.02000000    -3.86300000
   H     87.97000000    34.67000000    -3.77300000
   N     86.01000000    33.34000000    -5.56300000
   C     85.46000000    32.88000000    -6.82300000
   C     85.36000000    33.94000000    -7.90300000
   O     85.39000000    33.55000000    -9.07300000
   C     84.11000000    32.20000000    -6.57300000
   C     83.05000000    33.04000000    -5.87300000
   O     82.02000000    32.49000000    -5.44300000
   O     83.25000000    34.22000000    -5.51300000
   H     85.45000000    33.68000000    -4.79300000
   H     86.15000000    32.13000000    -7.19300000
   H     84.22000000    31.36000000    -5.89300000
   H     83.84000000    31.64000000    -7.46300000
   N     85.17000000    35.21000000    -7.54300000
   C     84.94000000    36.33000000    -8.43300000
   C     84.01000000    37.40000000    -7.86300000
   O     83.95000000    38.49000000    -8.42300000
   H     85.22000000    35.32000000    -6.53300000
   H     84.32000000    36.06000000    -9.28300000
   H     85.86000000    36.80000000    -8.77300000
   N     83.28000000    37.11000000    -6.78300000
   C     82.10000000    37.80000000    -6.31300000
   C     81.95000000    37.84000000    -4.80300000
   O     82.58000000    37.07000000    -4.08300000
   C     80.83000000    37.27000000    -6.97300000
   C     80.46000000    37.74000000    -8.37300000
   O     80.79000000    35.86000000    -7.05300000
   H     83.41000000    36.21000000    -6.33300000
   H     82.28000000    38.80000000    -6.72300000
   H     80.00000000    37.48000000    -6.29300000
   H     81.48000000    35.50000000    -7.61300000
   H     81.23000000    37.52000000    -9.12300000
   H     79.50000000    37.33000000    -8.68300000
   H     80.28000000    38.81000000    -8.34300000
   N     81.05000000    38.68000000    -4.27300000
   C     80.73000000    38.84000000    -2.87300000
   C     79.24000000    38.67000000    -2.65300000
   O     78.44000000    39.54000000    -2.98300000
   C     81.38000000    40.15000000    -2.41300000
   C     82.87000000    40.27000000    -2.73300000
   C     81.37000000    40.25000000    -0.88300000
   C     83.29000000    41.73000000    -2.66300000
   H     80.76000000    39.42000000    -4.90300000
   H     81.33000000    38.08000000    -2.37300000
   H     80.81000000    40.99000000    -2.80300000
   H     83.01000000    40.00000000    -3.77300000
   H     83.54000000    39.64000000    -2.15300000
   H     80.36000000    40.01000000    -0.56300000
   H     82.03000000    39.54000000    -0.39300000
   H     81.69000000    41.27000000    -0.66300000
   H     84.30000000    41.92000000    -3.02300000
   H     82.61000000    42.29000000    -3.30300000
   H     83.29000000    42.09000000    -1.63300000
   N     78.89000000    37.52000000    -2.07300000
   C     77.58000000    37.19000000    -1.55300000
   C     77.22000000    37.89000000    -0.25300000
   O     78.07000000    38.58000000     0.30700000
   C     77.38000000    35.69000000    -1.31300000
   C     77.60000000    34.78000000    -2.52300000
   O     78.17000000    35.28000000    -0.22300000
   H     79.61000000    36.87000000    -1.78300000
   H     76.83000000    37.47000000    -2.28300000
   H     76.35000000    35.57000000    -0.98300000
   H     79.08000000    35.29000000    -0.52300000
   H     77.46000000    33.78000000    -2.13300000
   H     76.84000000    35.02000000    -3.27300000
   H     78.57000000    34.91000000    -2.99300000
   N     75.97000000    37.78000000     0.20700000
   C     75.49000000    38.43000000     1.39700000
   C     76.38000000    38.12000000     2.58700000
   O     76.69000000    38.98000000     3.40700000
   C     74.02000000    38.11000000     1.66700000
   C     73.07000000    38.80000000     0.69700000
   O     73.84000000    36.71000000     1.55700000
   H     75.31000000    37.24000000    -0.34300000
   H     75.60000000    39.51000000     1.23700000
   H     73.80000000    38.46000000     2.67700000
   H     73.19000000    36.44000000     2.20700000
   H     73.39000000    38.76000000    -0.34300000
   H     72.07000000    38.37000000     0.72700000
   H     72.91000000    39.84000000     0.99700000
   N     76.69000000    36.82000000     2.66700000
   C     77.19000000    36.28000000     3.91700000
   C     78.68000000    36.52000000     4.13700000
   O     79.19000000    36.71000000     5.24700000
   C     76.80000000    34.82000000     4.11700000
   C     75.30000000    34.51000000     4.15700000
   C     75.11000000    33.11000000     4.73700000
   C     73.72000000    32.57000000     4.40700000
   N     72.67000000    33.35000000     5.06700000
   H     76.48000000    36.23000000     1.87700000
   H     76.77000000    36.73000000     4.80700000
   H     77.14000000    34.59000000     5.12700000
   H     77.28000000    34.15000000     3.40700000
   H     74.86000000    34.45000000     3.16700000
   H     74.74000000    35.19000000     4.78700000
   H     75.27000000    33.28000000     5.80700000
   H     75.84000000    32.36000000     4.43700000
   H     73.61000000    31.56000000     4.80700000
   H     73.56000000    32.58000000     3.32700000
   H     72.48000000    34.20000000     4.54700000
   H     71.75000000    32.93000000     5.15700000
   H     73.03000000    33.64000000     5.96700000
   N     79.39000000    36.70000000     3.02700000
   C     80.80000000    37.02000000     2.91700000
   C     81.10000000    38.48000000     3.22700000
   O     81.87000000    38.81000000     4.12700000
   C     81.23000000    36.71000000     1.48700000
   C     81.07000000    35.24000000     1.13700000
   C     81.42000000    35.01000000    -0.33300000
   O     80.69000000    35.52000000    -1.20300000
   O     82.47000000    34.42000000    -0.65300000
   H     78.84000000    36.52000000     2.19700000
   H     81.44000000    36.41000000     3.54700000
   H     82.28000000    37.00000000     1.35700000
   H     80.57000000    37.34000000     0.87700000
   H     80.09000000    34.85000000     1.40700000
   H     81.78000000    34.82000000     1.85700000
   N     80.33000000    39.36000000     2.58700000
   C     80.03000000    40.72000000     3.01700000
   H     79.04700000    40.74300000     3.48800000
   H     80.78300000    41.05000000     3.73300000
   H     80.03400000    41.38400000     2.15300000
   H     79.82000000    38.97000000     1.80700000
  Ca     82.38000000    34.64000000    -3.19300000
   O     80.16000000    34.43000000    -4.85300000
   H     80.12000000    35.09000000    -5.55300000
   H     80.64000000    33.70000000    -5.25300000
   O     80.45000000    32.38000000    -2.77300000
   H     81.11000000    31.74000000    -2.51300000
   H     79.62000000    32.02000000    -2.47300000

Ca 1.00



