%chk=loop2.holoCaM-CaMKII.run34.water2.chk
%nprocshared=20
%mem=10GB
%nosave
#b3lyp/svp scf=(tight,noincore,xqc) Test 
#IOP(5/87=12) Density=Current Pop=(MK,readradii) iop(6/33=2) iop(6/42=6)

loop2.holoCaM-CaMKII.run34.water2 

   -2  1 
   C     75.17000000    58.30000000    15.39000000
   C     75.44000000    58.84000000    13.99000000
   O     76.41000000    59.55000000    13.74000000
   H     74.13000000    57.98300000    15.46200000
   H     75.82300000    57.44900000    15.58400000
   H     75.36300000    59.08200000    16.12500000
   N     74.60000000    58.38000000    13.05000000
   C     74.85000000    58.45000000    11.63000000
   C     74.88000000    59.89000000    11.14000000
   O     74.31000000    60.76000000    11.81000000
   C     73.68000000    57.67000000    11.04000000
   C     73.73000000    57.26000000     9.58000000
   O     72.69000000    56.73000000     9.14000000
   O     74.76000000    57.37000000     8.88000000
   H     73.84000000    57.85000000    13.47000000
   H     75.77000000    57.91000000    11.41000000
   H     72.76000000    58.24000000    11.19000000
   H     73.49000000    56.74000000    11.59000000
   N     75.40000000    60.11000000     9.93000000
   C     75.41000000    61.41000000     9.30000000
   C     75.31000000    61.31000000     7.78000000
   O     75.38000000    62.33000000     7.10000000
   C     76.80000000    61.95000000     9.64000000
   H     75.86000000    59.30000000     9.53000000
   H     74.63000000    62.02000000     9.76000000
   H     77.51000000    61.41000000     9.01000000
   H     76.94000000    63.00000000     9.38000000
   H     77.00000000    61.75000000    10.69000000
   N     75.08000000    60.13000000     7.20000000
   C     75.06000000    59.97000000     5.76000000
   C     74.04000000    58.96000000     5.26000000
   O     73.64000000    59.04000000     4.10000000
   C     76.47000000    59.52000000     5.43000000
   C     77.00000000    58.28000000     6.12000000
   O     76.24000000    57.30000000     6.30000000
   O     78.15000000    58.30000000     6.62000000
   H     75.17000000    59.30000000     7.77000000
   H     74.87000000    60.93000000     5.27000000
   H     77.16000000    60.35000000     5.61000000
   H     76.56000000    59.39000000     4.35000000
   N     73.60000000    58.03000000     6.11000000
   C     72.68000000    56.97000000     5.77000000
   C     73.22000000    55.80000000     4.95000000
   O     72.42000000    55.06000000     4.39000000
   H     74.05000000    57.89000000     7.00000000
   H     71.74000000    57.28000000     5.30000000
   H     72.22000000    56.52000000     6.66000000
   N     74.53000000    55.63000000     4.77000000
   C     75.09000000    54.49000000     4.06000000
   C     74.91000000    53.08000000     4.61000000
   O     74.91000000    52.10000000     3.86000000
   C     76.58000000    54.73000000     3.84000000
   C     77.50000000    54.76000000     5.06000000
   N     78.63000000    55.47000000     5.02000000
   O     77.33000000    54.21000000     6.14000000
   H     75.07000000    56.39000000     5.16000000
   H     74.60000000    54.48000000     3.09000000
   H     76.67000000    55.69000000     3.32000000
   H     76.95000000    53.96000000     3.17000000
   H     78.70000000    56.16000000     4.28000000
   H     79.28000000    55.49000000     5.79000000
   N     74.58000000    52.80000000     5.87000000
   C     74.47000000    51.45000000     6.36000000
   C     75.57000000    50.95000000     7.29000000
   O     75.48000000    49.84000000     7.81000000
   H     74.47000000    53.57000000     6.51000000
   H     74.42000000    50.69000000     5.58000000
   H     73.57000000    51.34000000     6.97000000
   N     76.63000000    51.73000000     7.50000000
   C     77.74000000    51.34000000     8.36000000
   C     78.10000000    52.49000000     9.29000000
   O     77.80000000    53.64000000     8.97000000
   C     78.96000000    51.16000000     7.47000000
   C     78.80000000    49.88000000     6.65000000
   O     79.25000000    52.18000000     6.54000000
   H     76.71000000    52.64000000     7.08000000
   H     77.62000000    50.42000000     8.93000000
   H     79.78000000    50.99000000     8.17000000
   H     78.77000000    52.99000000     6.72000000
   H     78.84000000    50.23000000     5.62000000
   H     79.57000000    49.17000000     6.94000000
   H     77.90000000    49.28000000     6.82000000
   N     78.74000000    52.21000000    10.42000000
   C     79.37000000    53.29000000    11.16000000
   C     80.59000000    53.70000000    10.34000000
   O     81.30000000    52.83000000     9.84000000
   C     79.49000000    52.94000000    12.64000000
   C     78.22000000    53.46000000    13.32000000
   C     80.77000000    53.45000000    13.30000000
   C     78.21000000    53.02000000    14.78000000
   H     78.89000000    51.26000000    10.75000000
   H     78.70000000    54.15000000    11.07000000
   H     79.55000000    51.86000000    12.79000000
   H     77.35000000    53.05000000    12.82000000
   H     78.22000000    54.55000000    13.27000000
   H     80.78000000    54.54000000    13.33000000
   H     80.90000000    52.95000000    14.26000000
   H     81.54000000    53.07000000    12.63000000
   H     79.07000000    53.49000000    15.26000000
   H     77.32000000    53.49000000    15.21000000
   H     78.03000000    51.95000000    14.78000000
   N     80.84000000    55.01000000    10.29000000
   C     82.05000000    55.63000000     9.79000000
   C     82.98000000    56.09000000    10.90000000
   O     82.53000000    56.25000000    12.03000000
   C     81.74000000    56.77000000     8.82000000
   C     80.86000000    56.40000000     7.64000000
   O     79.69000000    55.99000000     7.82000000
   O     81.28000000    56.69000000     6.50000000
   H     80.18000000    55.63000000    10.73000000
   H     82.56000000    54.84000000     9.23000000
   H     82.72000000    57.16000000     8.53000000
   H     81.31000000    57.65000000     9.29000000
   N     84.30000000    56.12000000    10.67000000
   C     85.26000000    56.52000000    11.67000000
   C     84.86000000    57.73000000    12.51000000
   O     85.04000000    57.62000000    13.72000000
   C     86.66000000    56.65000000    11.09000000
   C     87.64000000    56.93000000    12.21000000
   C     88.47000000    58.05000000    12.07000000
   C     87.79000000    56.01000000    13.26000000
   C     89.43000000    58.25000000    13.07000000
   C     88.72000000    56.30000000    14.27000000
   C     89.55000000    57.42000000    14.20000000
   H     84.61000000    56.15000000     9.71000000
   H     85.38000000    55.68000000    12.35000000
   H     86.70000000    57.36000000    10.26000000
   H     86.99000000    55.70000000    10.67000000
   H     88.36000000    58.80000000    11.31000000
   H     87.17000000    55.13000000    13.31000000
   H     90.18000000    59.02000000    13.08000000
   H     88.67000000    55.61000000    15.10000000
   H     90.30000000    57.54000000    14.97000000
   N     84.41000000    58.86000000    11.96000000
   C     83.97000000    59.98000000    12.76000000
   C     82.73000000    59.81000000    13.63000000
   O     82.58000000    60.46000000    14.66000000
   C     83.84000000    61.17000000    11.82000000
   C     83.43000000    60.44000000    10.54000000
   C     84.30000000    59.18000000    10.55000000
   H     84.83000000    60.16000000    13.41000000
   H     83.17000000    61.96000000    12.17000000
   H     84.84000000    61.56000000    11.61000000
   H     82.42000000    60.07000000    10.71000000
   H     83.54000000    61.04000000     9.64000000
   H     83.98000000    58.38000000     9.89000000
   H     85.30000000    59.39000000    10.16000000
   N     81.88000000    58.88000000    13.17000000
   C     80.68000000    58.54000000    13.91000000
   C     81.08000000    57.74000000    15.14000000
   O     80.42000000    57.74000000    16.17000000
   C     79.74000000    57.73000000    13.02000000
   C     79.23000000    58.47000000    11.78000000
   C     78.58000000    57.54000000    10.77000000
   O     78.03000000    58.01000000     9.75000000
   O     78.38000000    56.33000000    11.01000000
   H     82.12000000    58.31000000    12.37000000
   H     80.20000000    59.49000000    14.14000000
   H     78.81000000    57.50000000    13.55000000
   H     80.17000000    56.77000000    12.75000000
   H     80.04000000    58.96000000    11.24000000
   H     78.55000000    59.25000000    12.13000000
   N     82.07000000    56.87000000    14.95000000
   C     82.59000000    56.04000000    16.01000000
   H     83.49200000    56.49600000    16.41800000
   H     81.84300000    55.94600000    16.79800000
   H     82.82900000    55.05300000    15.61500000
   H     82.41000000    56.68000000    14.01000000
  Ca     77.22000000    56.12000000     8.38000000
   O     75.99000000    55.44000000    10.97000000
   H     75.53000000    55.03000000    11.71000000
   H     76.86000000    55.66000000    11.32000000
   O     75.12000000    54.21000000     8.70000000
   H     74.25000000    54.56000000     8.50000000
   H     75.04000000    53.87000000     9.59000000

Ca 1.00



