%chk=loop4.apoCaM-CA-Ng.Init31.run70.water4.chk
%nprocshared=20
%mem=10GB
%nosave
#b3lyp/svp scf=(tight,noincore,xqc) Test 
#IOP(5/87=12) Density=Current Pop=(MK,readradii) iop(6/33=2) iop(6/42=6)

loop4.apoCaM-CA-Ng.Init31.run70.water4 

   -3  1 
   C    103.19000000    48.23000000    33.70000000
   C    102.91000000    49.59000000    33.09000000
   O    101.77000000    50.00000000    32.84000000
   H    104.07300000    48.29200000    34.33600000
   H    102.33400000    47.91600000    34.29800000
   H    103.36500000    47.50400000    32.90600000
   N    103.88000000    50.48000000    32.85000000
   C    105.32000000    50.43000000    32.99000000
   C    105.86000000    50.79000000    34.37000000
   O    106.87000000    50.28000000    34.85000000
   C    105.80000000    51.38000000    31.89000000
   C    107.29000000    51.28000000    31.60000000
   O    107.87000000    52.35000000    31.28000000
   O    107.90000000    50.21000000    31.75000000
   H    103.61000000    51.33000000    32.37000000
   H    105.60000000    49.42000000    32.71000000
   H    105.49000000    52.39000000    32.16000000
   H    105.22000000    51.26000000    30.98000000
   N    105.17000000    51.61000000    35.16000000
   C    105.13000000    51.70000000    36.61000000
   C    105.55000000    53.08000000    37.08000000
   O    105.92000000    53.18000000    38.25000000
   C    103.80000000    51.18000000    37.15000000
   C    103.90000000    50.74000000    38.61000000
   C    102.71000000    52.21000000    36.89000000
   C    102.69000000    50.06000000    39.23000000
   H    104.44000000    52.10000000    34.66000000
   H    105.81000000    50.93000000    36.97000000
   H    103.57000000    50.26000000    36.61000000
   H    104.09000000    51.64000000    39.19000000
   H    104.68000000    49.99000000    38.75000000
   H    102.59000000    52.39000000    35.82000000
   H    101.75000000    51.81000000    37.22000000
   H    102.86000000    53.10000000    37.51000000
   H    102.47000000    49.11000000    38.75000000
   H    102.82000000    49.83000000    40.29000000
   H    101.79000000    50.61000000    38.96000000
   N    105.50000000    54.18000000    36.33000000
   C    105.88000000    55.50000000    36.80000000
   C    107.22000000    56.03000000    36.30000000
   O    107.69000000    57.08000000    36.74000000
   C    104.73000000    56.45000000    36.49000000
   C    104.64000000    57.57000000    37.52000000
   O    105.03000000    58.72000000    37.26000000
   O    104.14000000    57.34000000    38.64000000
   H    105.13000000    53.99000000    35.41000000
   H    105.91000000    55.50000000    37.89000000
   H    103.75000000    55.95000000    36.45000000
   H    104.79000000    57.00000000    35.55000000
   N    107.92000000    55.27000000    35.46000000
   C    109.24000000    55.56000000    34.94000000
   C    109.44000000    56.79000000    34.07000000
   O    108.49000000    57.21000000    33.41000000
   H    107.58000000    54.34000000    35.28000000
   H    109.67000000    54.73000000    34.38000000
   H    109.90000000    55.53000000    35.80000000
   N    110.64000000    57.38000000    34.06000000
   C    110.93000000    58.61000000    33.35000000
   C    110.43000000    59.84000000    34.10000000
   O    110.32000000    59.82000000    35.32000000
   C    112.43000000    58.67000000    33.10000000
   C    113.33000000    58.46000000    34.31000000
   O    113.90000000    59.37000000    34.96000000
   O    113.41000000    57.30000000    34.77000000
   H    111.31000000    57.13000000    34.78000000
   H    110.43000000    58.63000000    32.38000000
   H    112.50000000    59.69000000    32.73000000
   H    112.70000000    57.97000000    32.30000000
   N    110.04000000    60.96000000    33.50000000
   C    110.18000000    61.31000000    32.10000000
   C    110.28000000    62.79000000    31.75000000
   O    110.28000000    63.64000000    32.63000000
   H    109.82000000    61.75000000    34.09000000
   H    109.31000000    60.92000000    31.57000000
   H    110.89000000    60.68000000    31.56000000
   N    110.39000000    63.08000000    30.45000000
   C    110.31000000    62.30000000    29.23000000
   C    109.00000000    61.56000000    28.98000000
   O    107.97000000    61.73000000    29.62000000
   C    111.57000000    61.47000000    28.97000000
   C    112.82000000    62.34000000    29.09000000
   C    113.14000000    63.16000000    27.86000000
   N    114.37000000    63.66000000    27.67000000
   O    112.30000000    63.40000000    26.99000000
   H    110.65000000    64.05000000    30.33000000
   H    110.24000000    63.05000000    28.45000000
   H    111.54000000    61.08000000    27.95000000
   H    111.62000000    60.61000000    29.63000000
   H    113.68000000    61.70000000    29.32000000
   H    112.78000000    63.06000000    29.90000000
   H    114.99000000    63.50000000    28.45000000
   H    114.61000000    64.31000000    26.94000000
   N    108.92000000    60.79000000    27.90000000
   C    107.82000000    59.96000000    27.45000000
   C    107.45000000    60.13000000    25.98000000
   O    108.29000000    60.67000000    25.25000000
   C    108.11000000    58.51000000    27.85000000
   C    108.17000000    58.27000000    29.36000000
   C    109.44000000    58.08000000    27.25000000
   H    109.77000000    60.64000000    27.36000000
   H    106.93000000    60.23000000    28.01000000
   H    107.33000000    57.83000000    27.52000000
   H    108.33000000    57.20000000    29.49000000
   H    109.02000000    58.82000000    29.76000000
   H    107.26000000    58.67000000    29.79000000
   H    109.35000000    58.18000000    26.17000000
   H    110.25000000    58.51000000    27.85000000
   H    109.48000000    56.99000000    27.34000000
   N    106.24000000    59.75000000    25.56000000
   C    105.82000000    59.67000000    24.18000000
   C    106.42000000    58.48000000    23.44000000
   O    106.21000000    58.35000000    22.24000000
   C    104.31000000    59.57000000    24.05000000
   C    103.80000000    59.70000000    22.62000000
   N    103.19000000    58.64000000    22.09000000
   O    103.97000000    60.66000000    21.87000000
   H    105.65000000    59.30000000    26.24000000
   H    106.07000000    60.57000000    23.61000000
   H    103.92000000    60.48000000    24.50000000
   H    104.02000000    58.58000000    24.41000000
   H    103.15000000    57.72000000    22.52000000
   H    102.85000000    58.77000000    21.15000000
   N    107.19000000    57.60000000    24.09000000
   C    107.85000000    56.49000000    23.42000000
   C    108.27000000    55.35000000    24.34000000
   O    108.19000000    55.45000000    25.56000000
   C    109.03000000    56.89000000    22.54000000
   C    110.22000000    57.48000000    23.25000000
   C    111.08000000    56.68000000    24.01000000
   C    110.33000000    58.87000000    23.35000000
   C    112.05000000    57.30000000    24.81000000
   C    111.25000000    59.54000000    24.18000000
   C    112.08000000    58.71000000    24.96000000
   O    112.97000000    59.33000000    25.78000000
   H    107.30000000    57.62000000    25.09000000
   H    107.15000000    56.04000000    22.71000000
   H    108.73000000    57.51000000    21.69000000
   H    109.43000000    56.05000000    21.97000000
   H    110.96000000    55.61000000    24.03000000
   H    109.69000000    59.46000000    22.71000000
   H    112.86000000    56.76000000    25.27000000
   H    111.23000000    60.61000000    24.26000000
   H    113.40000000    58.70000000    26.37000000
   N    108.45000000    54.14000000    23.79000000
   C    108.55000000    52.89000000    24.50000000
   C    107.20000000    52.35000000    24.97000000
   O    106.20000000    52.21000000    24.27000000
   C    109.23000000    51.84000000    23.63000000
   C    110.74000000    52.04000000    23.57000000
   C    111.29000000    51.32000000    22.34000000
   O    111.24000000    50.07000000    22.28000000
   O    111.82000000    51.92000000    21.39000000
   H    108.28000000    54.07000000    22.79000000
   H    109.14000000    53.08000000    25.40000000
   H    108.78000000    51.94000000    22.64000000
   H    109.00000000    50.85000000    24.01000000
   H    111.19000000    51.65000000    24.48000000
   H    111.04000000    53.08000000    23.46000000
   N    107.07000000    52.15000000    26.28000000
   C    105.95000000    51.51000000    26.94000000
   C    105.03000000    52.62000000    27.44000000
   O    104.66000000    52.62000000    28.61000000
   C    106.40000000    50.60000000    28.08000000
   C    107.30000000    49.42000000    27.69000000
   C    107.78000000    48.68000000    28.93000000
   O    107.07000000    47.98000000    29.68000000
   O    109.00000000    48.72000000    29.17000000
   H    107.90000000    52.34000000    26.82000000
   H    105.33000000    50.99000000    26.21000000
   H    105.54000000    50.17000000    28.59000000
   H    106.93000000    51.24000000    28.78000000
   H    108.16000000    49.72000000    27.08000000
   H    106.67000000    48.73000000    27.13000000
   N    104.64000000    53.53000000    26.55000000
   C    103.80000000    54.69000000    26.81000000
   H    102.85300000    54.36300000    27.24000000
   H    104.30600000    55.35600000    27.50900000
   H    103.61100000    55.21900000    25.87600000
   H    104.98000000    53.38000000    25.61000000
  Ca    108.87800000    47.80000000    31.64000000
   O    108.82800000    45.49000000    29.95000000
   H    108.82800000    45.29000000    29.01000000
   H    109.05800000    44.66000000    30.37000000
   O    108.96800000    48.58000000    34.19000000
   H    109.33800000    48.12000000    34.95000000
   H    108.68800000    49.42000000    34.54000000
   O    111.21800000    46.58000000    31.56000000
   H    111.85800000    46.70000000    32.26000000
   H    111.44800000    45.74000000    31.16000000
   O    110.89800000    49.65000000    31.77000000
   H    111.61800000    49.37000000    31.21000000
   H    110.54800000    50.43000000    31.33000000

Ca 1.00



