%chk=loop2.holoCaM.run50.water2.chk
%nprocshared=20
%mem=10GB
%nosave
#b3lyp/svp scf=(tight,noincore,xqc) Test 
#IOP(5/87=12) Density=Current Pop=(MK,readradii) iop(6/33=2) iop(6/42=6)

loop2.holoCaM.run50.water2 

   -2  1 
   C     66.45000000    71.08000000     8.69300000
   C     65.39000000    71.52000000     9.68300000
   O     65.56000000    72.37000000    10.56300000
   H     67.37000000    70.84400000     9.22800000
   H     66.10400000    70.19500000     8.15900000
   H     66.63900000    71.88400000     7.98200000
   N     64.23000000    70.87000000     9.63300000
   C     63.22000000    70.99000000    10.67300000
   C     63.80000000    70.59000000    12.02300000
   O     64.33000000    69.50000000    12.22300000
   C     62.01000000    70.14000000    10.29300000
   C     60.82000000    70.36000000    11.22300000
   O     59.86000000    69.56000000    11.16300000
   O     60.87000000    71.27000000    12.08300000
   H     64.06000000    70.14000000     8.95300000
   H     62.93000000    72.04000000    10.67300000
   H     62.32000000    69.10000000    10.21300000
   H     61.70000000    70.43000000     9.29300000
   N     63.53000000    71.44000000    13.01300000
   C     63.95000000    71.30000000    14.39300000
   C     63.07000000    70.40000000    15.25300000
   O     63.57000000    69.50000000    15.91300000
   C     64.06000000    72.73000000    14.92300000
   H     63.08000000    72.33000000    12.82300000
   H     64.95000000    70.88000000    14.38300000
   H     64.44000000    72.72000000    15.95300000
   H     64.72000000    73.36000000    14.31300000
   H     63.10000000    73.24000000    14.98300000
   N     61.75000000    70.56000000    15.13300000
   C     60.73000000    70.03000000    16.02300000
   C     60.05000000    68.82000000    15.39300000
   O     59.54000000    68.10000000    16.24300000
   C     59.66000000    71.08000000    16.30300000
   C     59.07000000    71.68000000    15.03300000
   O     58.41000000    70.94000000    14.27300000
   O     59.26000000    72.88000000    14.76300000
   H     61.54000000    71.33000000    14.51300000
   H     61.20000000    69.67000000    16.94300000
   H     60.03000000    71.87000000    16.96300000
   H     58.99000000    70.59000000    17.00300000
   N     60.01000000    68.57000000    14.08300000
   C     59.50000000    67.42000000    13.37300000
   C     58.05000000    67.34000000    12.89300000
   O     57.60000000    66.33000000    12.36300000
   H     60.45000000    69.26000000    13.48300000
   H     59.65000000    66.56000000    14.02300000
   H     60.14000000    67.27000000    12.51300000
   N     57.36000000    68.48000000    12.90300000
   C     56.01000000    68.66000000    12.40300000
   C     55.90000000    68.93000000    10.91300000
   O     54.82000000    69.31000000    10.46300000
   C     55.48000000    69.77000000    13.30300000
   C     55.25000000    69.37000000    14.76300000
   N     56.26000000    69.63000000    15.59300000
   O     54.26000000    68.73000000    15.10300000
   H     57.85000000    69.31000000    13.22300000
   H     55.39000000    67.80000000    12.65300000
   H     54.53000000    70.13000000    12.91300000
   H     56.18000000    70.60000000    13.28300000
   H     57.08000000    70.10000000    15.24300000
   H     56.23000000    69.36000000    16.56300000
   N     57.02000000    68.93000000    10.19300000
   C     57.01000000    69.13000000     8.75300000
   C     56.72000000    70.54000000     8.25300000
   O     56.41000000    70.71000000     7.07300000
   H     57.86000000    68.56000000    10.61300000
   H     56.44000000    68.42000000     8.17300000
   H     58.03000000    69.01000000     8.39300000
   N     56.97000000    71.64000000     8.96300000
   C     56.84000000    72.98000000     8.41300000
   C     58.09000000    73.79000000     8.73300000
   O     58.75000000    73.43000000     9.71300000
   C     55.59000000    73.69000000     8.92300000
   C     54.34000000    73.02000000     8.34300000
   O     55.37000000    73.66000000    10.31300000
   H     57.29000000    71.57000000     9.91300000
   H     56.73000000    72.89000000     7.33300000
   H     55.52000000    74.72000000     8.57300000
   H     54.64000000    74.26000000    10.41300000
   H     53.52000000    73.65000000     8.66300000
   H     54.35000000    73.05000000     7.25300000
   H     54.18000000    72.04000000     8.79300000
   N     58.45000000    74.83000000     7.98300000
   C     59.69000000    75.58000000     8.07300000
   C     59.45000000    76.91000000     8.78300000
   O     58.68000000    77.70000000     8.24300000
   C     60.33000000    75.71000000     6.70300000
   C     60.77000000    74.35000000     6.16300000
   C     61.39000000    76.80000000     6.56300000
   C     61.93000000    73.74000000     6.95300000
   H     57.77000000    75.20000000     7.34300000
   H     60.40000000    75.00000000     8.67300000
   H     59.44000000    75.97000000     6.12300000
   H     61.13000000    74.41000000     5.13300000
   H     59.98000000    73.60000000     6.18300000
   H     60.98000000    77.81000000     6.51300000
   H     62.03000000    76.86000000     7.44300000
   H     62.01000000    76.60000000     5.69300000
   H     62.41000000    72.84000000     6.55300000
   H     62.74000000    74.45000000     7.10300000
   H     61.63000000    73.53000000     7.98300000
   N     60.06000000    77.08000000     9.96300000
   C     60.14000000    78.37000000    10.61300000
   C     61.25000000    79.24000000    10.03300000
   O     62.08000000    78.70000000     9.31300000
   C     60.47000000    78.21000000    12.09300000
   C     59.49000000    77.35000000    12.88300000
   O     59.58000000    76.11000000    12.78300000
   O     58.58000000    77.92000000    13.53300000
   H     60.65000000    76.33000000    10.29300000
   H     59.21000000    78.93000000    10.56300000
   H     60.49000000    79.19000000    12.56300000
   H     61.45000000    77.75000000    12.23300000
   N     61.35000000    80.54000000    10.35300000
   C     62.38000000    81.41000000     9.83300000
   C     63.83000000    81.09000000    10.16300000
   O     64.67000000    81.28000000     9.29300000
   C     62.02000000    82.84000000    10.25300000
   C     62.87000000    83.86000000     9.53300000
   C     62.90000000    83.87000000     8.13300000
   C     63.79000000    84.60000000    10.28300000
   C     63.82000000    84.68000000     7.46300000
   C     64.64000000    85.48000000     9.60300000
   C     64.57000000    85.60000000     8.20300000
   H     60.82000000    80.90000000    11.12300000
   H     62.23000000    81.38000000     8.75300000
   H     62.00000000    83.04000000    11.32300000
   H     60.99000000    83.04000000     9.95300000
   H     62.30000000    83.19000000     7.54300000
   H     63.83000000    84.47000000    11.35300000
   H     63.88000000    84.70000000     6.39300000
   H     65.25000000    86.20000000    10.12300000
   H     65.10000000    86.40000000     7.70300000
   N     64.22000000    80.55000000    11.32300000
   C     65.55000000    80.02000000    11.55300000
   C     65.86000000    78.89000000    10.58300000
   O     66.91000000    78.82000000     9.95300000
   C     65.56000000    79.52000000    12.99300000
   C     64.57000000    80.47000000    13.66300000
   C     63.50000000    80.55000000    12.58300000
   H     66.31000000    80.78000000    11.31300000
   H     65.12000000    78.53000000    13.05300000
   H     66.56000000    79.66000000    13.41300000
   H     64.27000000    80.01000000    14.60300000
   H     64.98000000    81.47000000    13.79300000
   H     62.85000000    79.68000000    12.58300000
   H     62.93000000    81.47000000    12.75300000
   N     64.87000000    78.01000000    10.42300000
   C     64.87000000    76.87000000     9.52300000
   C     64.90000000    77.20000000     8.04300000
   O     65.60000000    76.50000000     7.31300000
   C     63.61000000    76.04000000     9.78300000
   C     63.56000000    75.63000000    11.25300000
   C     62.35000000    74.72000000    11.47300000
   O     61.37000000    74.65000000    10.70300000
   O     62.32000000    73.96000000    12.45300000
   H     64.09000000    78.17000000    11.05300000
   H     65.68000000    76.20000000     9.78300000
   H     63.74000000    75.14000000     9.19300000
   H     62.68000000    76.48000000     9.44300000
   H     63.33000000    76.51000000    11.86300000
   H     64.46000000    75.11000000    11.58300000
   N     64.26000000    78.32000000     7.71300000
   C     64.39000000    78.83000000     6.36300000
   H     65.44600000    78.89300000     6.09900000
   H     63.88200000    78.15900000     5.67000000
   H     63.94100000    79.82200000     6.30400000
   H     63.61000000    78.75000000     8.36300000
  Ca     59.68000000    73.57000000    12.30000000
   O     57.14000000    74.19000000    12.49000000
   H     56.57000000    74.01000000    11.74000000
   H     56.60000000    74.70000000    13.09000000
   O     58.07000000    71.33000000    11.80000000
   H     58.62000000    70.70000000    11.33000000
   H     58.15000000    71.08000000    12.72000000

Ca 1.00



