%chk=loop3.apoCaM-CA-Ng.Init31.run5.water6.chk
%nprocshared=20
%mem=10GB
%nosave
#b3lyp/svp scf=(tight,noincore,xqc) Test 
#IOP(5/87=12) Density=Current Pop=(MK,readradii) iop(6/33=2) iop(6/42=6)

loop3.apoCaM-CA-Ng.Init31.run5.water6 

   0  1 
   C     80.87000000    48.25000000    36.44000000
   C     81.06000000    47.07000000    37.37000000
   O     80.09000000    46.60000000    37.96000000
   H     80.09700000    48.90600000    36.84000000
   H     81.80600000    48.80200000    36.35600000
   H     80.56900000    47.89200000    35.45500000
   N     82.29000000    46.57000000    37.55000000
   C     82.65000000    45.47000000    38.42000000
   C     82.33000000    45.74000000    39.88000000
   O     82.00000000    44.85000000    40.65000000
   C     84.13000000    45.25000000    38.09000000
   C     84.52000000    45.05000000    36.64000000
   O     84.15000000    44.05000000    36.00000000
   O     85.26000000    45.89000000    36.07000000
   H     83.10000000    46.96000000    37.10000000
   H     82.12000000    44.56000000    38.13000000
   H     84.61000000    44.45000000    38.66000000
   H     84.67000000    46.16000000    38.34000000
   N     82.47000000    47.00000000    40.32000000
   C     82.26000000    47.36000000    41.71000000
   C     83.29000000    46.77000000    42.66000000
   O     84.50000000    46.72000000    42.45000000
   C     82.27000000    48.87000000    41.90000000
   C     81.02000000    49.65000000    41.48000000
   C     81.26000000    51.16000000    41.50000000
   C     82.11000000    51.51000000    40.28000000
   N     82.60000000    52.90000000    40.26000000
   H     82.67000000    47.76000000    39.69000000
   H     81.28000000    47.02000000    42.05000000
   H     83.14000000    49.27000000    41.39000000
   H     82.48000000    49.10000000    42.95000000
   H     80.24000000    49.44000000    42.21000000
   H     80.67000000    49.42000000    40.48000000
   H     81.74000000    51.51000000    42.41000000
   H     80.27000000    51.61000000    41.48000000
   H     81.47000000    51.35000000    39.41000000
   H     83.03000000    50.93000000    40.19000000
   H     83.02000000    53.12000000    39.37000000
   H     81.87000000    53.56000000    40.47000000
   H     83.28000000    53.09000000    40.99000000
   N     82.72000000    46.29000000    43.77000000
   C     83.35000000    45.45000000    44.78000000
   C     83.69000000    44.08000000    44.22000000
   O     84.42000000    43.27000000    44.78000000
   C     82.49000000    45.32000000    46.03000000
   C     82.14000000    46.60000000    46.77000000
   O     82.53000000    47.75000000    46.48000000
   O     81.55000000    46.40000000    47.85000000
   H     81.76000000    46.58000000    43.87000000
   H     84.30000000    45.93000000    45.01000000
   H     83.05000000    44.65000000    46.69000000
   H     81.52000000    44.88000000    45.77000000
   N     83.10000000    43.74000000    43.07000000
   C     83.17000000    42.47000000    42.38000000
   C     84.37000000    42.46000000    41.45000000
   O     85.26000000    43.28000000    41.65000000
   H     82.42000000    44.33000000    42.63000000
   H     82.30000000    42.27000000    41.75000000
   H     83.37000000    41.70000000    43.13000000
   N     84.52000000    41.53000000    40.50000000
   C     83.58000000    40.53000000    40.04000000
   C     83.42000000    40.50000000    38.52000000
   O     84.28000000    39.95000000    37.85000000
   C     83.97000000    39.22000000    40.70000000
   C     82.98000000    38.10000000    40.42000000
   N     82.54000000    37.47000000    41.51000000
   O     82.56000000    37.71000000    39.33000000
   H     85.44000000    41.31000000    40.14000000
   H     82.64000000    40.78000000    40.52000000
   H     83.91000000    39.40000000    41.77000000
   H     84.94000000    38.84000000    40.38000000
   H     82.79000000    37.64000000    42.47000000
   H     81.71000000    36.97000000    41.21000000
   N     82.31000000    41.01000000    37.99000000
   C     81.36000000    41.89000000    38.65000000
   C     80.32000000    41.16000000    39.49000000
   O     79.65000000    41.81000000    40.30000000
   H     82.27000000    40.87000000    36.99000000
   H     80.76000000    42.45000000    37.94000000
   H     81.94000000    42.50000000    39.33000000
   N     80.05000000    39.90000000    39.17000000
   C     79.07000000    39.15000000    39.93000000
   C     79.11000000    39.23000000    41.45000000
   O     80.14000000    39.00000000    42.08000000
   C     79.14000000    37.69000000    39.49000000
   C     79.10000000    37.49000000    37.99000000
   C     77.89000000    37.74000000    37.34000000
   C     80.23000000    37.04000000    37.29000000
   C     77.77000000    37.53000000    35.96000000
   C     80.14000000    37.01000000    35.89000000
   C     78.91000000    37.13000000    35.22000000
   O     78.85000000    36.76000000    33.91000000
   H     80.56000000    39.41000000    38.44000000
   H     78.08000000    39.44000000    39.57000000
   H     78.20000000    37.26000000    39.83000000
   H     80.00000000    37.23000000    39.96000000
   H     77.02000000    38.12000000    37.84000000
   H     81.22000000    36.85000000    37.69000000
   H     76.86000000    37.75000000    35.43000000
   H     81.02000000    36.76000000    35.31000000
   H     79.62000000    36.30000000    33.57000000
   N     77.91000000    39.48000000    41.97000000
   C     77.70000000    39.53000000    43.40000000
   C     76.36000000    38.87000000    43.69000000
   O     75.46000000    38.71000000    42.86000000
   C     77.66000000    40.98000000    43.85000000
   C     79.10000000    41.47000000    43.85000000
   C     76.79000000    41.85000000    42.94000000
   C     79.33000000    42.81000000    44.55000000
   H     77.21000000    39.88000000    41.36000000
   H     78.50000000    38.94000000    43.86000000
   H     77.23000000    41.02000000    44.85000000
   H     79.47000000    41.60000000    42.83000000
   H     79.70000000    40.79000000    44.46000000
   H     77.27000000    42.21000000    42.03000000
   H     75.98000000    41.21000000    42.60000000
   H     76.49000000    42.75000000    43.48000000
   H     80.37000000    43.10000000    44.42000000
   H     78.56000000    43.56000000    44.38000000
   H     79.27000000    42.67000000    45.63000000
   N     76.11000000    38.61000000    44.97000000
   C     74.83000000    38.28000000    45.57000000
   C     73.85000000    39.44000000    45.66000000
   O     73.79000000    40.29000000    44.78000000
   C     74.22000000    36.97000000    45.09000000
   O     75.10000000    35.97000000    45.55000000
   H     76.79000000    38.88000000    45.67000000
   H     75.08000000    38.11000000    46.62000000
   H     74.14000000    37.00000000    44.00000000
   H     73.27000000    36.86000000    45.62000000
   H     75.74000000    35.81000000    44.85000000
   N     73.04000000    39.47000000    46.73000000
   C     72.01000000    40.47000000    46.96000000
   C     72.58000000    41.51000000    47.91000000
   O     73.77000000    41.47000000    48.23000000
   C     70.76000000    39.79000000    47.50000000
   H     73.08000000    38.65000000    47.31000000
   H     71.75000000    40.92000000    46.00000000
   H     71.07000000    39.27000000    48.41000000
   H     69.94000000    40.46000000    47.75000000
   H     70.40000000    39.07000000    46.78000000
   N     71.75000000    42.43000000    48.42000000
   C     72.15000000    43.54000000    49.26000000
   C     73.07000000    44.58000000    48.64000000
   O     73.85000000    45.15000000    49.39000000
   C     72.43000000    43.16000000    50.71000000
   H     70.76000000    42.36000000    48.21000000
   H     71.24000000    44.13000000    49.28000000
   H     72.06000000    43.81000000    51.50000000
   H     71.94000000    42.19000000    50.81000000
   H     73.51000000    43.10000000    50.86000000
   N     73.11000000    44.65000000    47.31000000
   C     74.09000000    45.45000000    46.61000000
   C     73.44000000    46.67000000    45.96000000
   O     73.83000000    47.83000000    45.96000000
   C     74.95000000    44.64000000    45.64000000
   C     76.25000000    45.35000000    45.27000000
   C     77.32000000    45.53000000    46.33000000
   O     78.19000000    46.42000000    46.21000000
   O     77.39000000    44.69000000    47.25000000
   H     72.63000000    43.91000000    46.79000000
   H     74.74000000    45.93000000    47.34000000
   H     74.32000000    44.53000000    44.76000000
   H     75.18000000    43.67000000    46.08000000
   H     75.92000000    46.28000000    44.80000000
   H     76.77000000    44.84000000    44.46000000
   N     72.25000000    46.43000000    45.39000000
   C     71.54000000    47.43000000    44.62000000
   H     70.62200000    47.70300000    45.13900000
   H     72.16800000    48.31300000    44.50400000
   H     71.29500000    47.02600000    43.63800000
   H     71.99000000    45.46000000    45.38000000
  Ca     79.14000000    45.98000000    48.57000000
   O     80.25000000    43.60000000    48.15000000
   H     80.23000000    42.91000000    47.50000000
   H     81.18000000    43.71000000    48.36000000
   O     77.22000000    44.83000000    50.44000000
   H     76.38000000    45.19000000    50.72000000
   H     77.00000000    43.95000000    50.11000000
   O     80.98000000    45.31000000    50.80000000
   H     81.54000000    45.85000000    51.36000000
   H     80.95000000    44.46000000    51.23000000
   O     76.50000000    47.56000000    48.60000000
   H     75.84000000    47.76000000    47.94000000
   H     76.22000000    48.04000000    49.37000000
   O     79.32000000    48.63000000    48.07000000
   H     80.08000000    49.16000000    47.84000000
   H     78.63000000    49.27000000    48.25000000
   O     78.60000000    47.59000000    50.74000000
   H     78.43000000    47.14000000    51.57000000
   H     77.92000000    48.26000000    50.70000000

Ca 1.00



