%chk=loop2.apoCaM-CA-Ng.Init31.run59.water4.chk
%nprocshared=20
%mem=10GB
%nosave
#b3lyp/svp scf=(tight,noincore,xqc) Test 
#IOP(5/87=12) Density=Current Pop=(MK,readradii) iop(6/33=2) iop(6/42=6)

loop2.apoCaM-CA-Ng.Init31.run59.water4 

   -2  1 
   C     90.58000000    66.77000000    -1.69000000
   C     89.18000000    66.26000000    -1.39000000
   O     89.01000000    65.17000000    -0.84000000
   H     91.27600000    65.93100000    -1.70800000
   H     90.58600000    67.26700000    -2.66000000
   H     90.88400000    67.47600000    -0.91700000
   N     88.15000000    67.00000000    -1.81000000
   C     88.06000000    68.23000000    -2.57000000
   C     87.29000000    67.87000000    -3.83000000
   O     86.30000000    67.15000000    -3.78000000
   C     87.54000000    69.39000000    -1.73000000
   C     86.40000000    69.03000000    -0.79000000
   O     85.60000000    68.10000000    -1.05000000
   O     86.19000000    69.64000000     0.28000000
   H     87.26000000    66.55000000    -1.67000000
   H     89.04000000    68.61000000    -2.87000000
   H     87.11000000    70.16000000    -2.37000000
   H     88.39000000    69.78000000    -1.17000000
   N     87.80000000    68.31000000    -4.99000000
   C     87.08000000    68.27000000    -6.25000000
   C     85.81000000    69.09000000    -6.12000000
   O     85.79000000    70.32000000    -6.03000000
   C     86.91000000    66.85000000    -6.77000000
   H     88.64000000    68.85000000    -4.87000000
   H     87.73000000    68.78000000    -6.96000000
   H     87.69000000    66.19000000    -6.40000000
   H     86.02000000    66.37000000    -6.34000000
   H     86.84000000    66.93000000    -7.85000000
   N     84.66000000    68.41000000    -6.05000000
   C     83.39000000    69.04000000    -5.74000000
   C     83.16000000    69.48000000    -4.31000000
   O     83.74000000    68.98000000    -3.35000000
   C     82.18000000    68.19000000    -6.11000000
   C     82.14000000    66.80000000    -5.47000000
   O     81.16000000    66.11000000    -5.82000000
   O     82.89000000    66.43000000    -4.54000000
   H     84.68000000    67.40000000    -6.02000000
   H     83.35000000    69.94000000    -6.34000000
   H     82.20000000    68.07000000    -7.19000000
   H     81.27000000    68.75000000    -5.89000000
   N     82.37000000    70.56000000    -4.21000000
   C     81.68000000    70.95000000    -3.00000000
   C     80.68000000    69.96000000    -2.42000000
   O     80.15000000    69.15000000    -3.18000000
   H     81.98000000    71.02000000    -5.01000000
   H     81.17000000    71.90000000    -3.19000000
   H     82.51000000    71.12000000    -2.31000000
   N     80.19000000    70.09000000    -1.19000000
   C     79.21000000    69.27000000    -0.50000000
   C     78.55000000    70.06000000     0.62000000
   O     79.02000000    71.04000000     1.20000000
   C     79.83000000    68.00000000     0.06000000
   C     80.56000000    67.10000000    -0.92000000
   N     79.87000000    66.08000000    -1.43000000
   O     81.75000000    67.21000000    -1.23000000
   H     80.63000000    70.81000000    -0.64000000
   H     78.44000000    68.94000000    -1.20000000
   H     79.08000000    67.35000000     0.50000000
   H     80.56000000    68.25000000     0.83000000
   H     78.96000000    65.87000000    -1.06000000
   H     80.41000000    65.38000000    -1.92000000
   N     77.38000000    69.56000000     1.03000000
   C     76.56000000    70.00000000     2.15000000
   C     75.38000000    69.07000000     2.42000000
   O     75.16000000    68.13000000     1.67000000
   H     77.04000000    68.75000000     0.53000000
   H     76.22000000    71.01000000     1.93000000
   H     77.22000000    70.00000000     3.02000000
   N     74.57000000    69.20000000     3.47000000
   C     74.85000000    69.96000000     4.67000000
   C     75.88000000    69.26000000     5.54000000
   O     76.66000000    69.97000000     6.18000000
   C     73.59000000    70.28000000     5.47000000
   C     72.55000000    71.05000000     4.66000000
   O     72.95000000    69.09000000     5.89000000
   H     73.88000000    68.46000000     3.51000000
   H     75.24000000    70.96000000     4.46000000
   H     73.82000000    70.92000000     6.32000000
   H     73.20000000    69.09000000     6.82000000
   H     72.28000000    70.42000000     3.81000000
   H     71.62000000    71.26000000     5.19000000
   H     73.08000000    71.95000000     4.35000000
   N     76.05000000    67.94000000     5.46000000
   C     77.19000000    67.32000000     6.10000000
   C     77.31000000    67.65000000     7.58000000
   O     78.26000000    68.33000000     7.96000000
   C     78.43000000    67.44000000     5.21000000
   C     78.30000000    66.96000000     3.77000000
   C     79.51000000    66.54000000     5.81000000
   C     77.45000000    65.73000000     3.48000000
   H     75.35000000    67.46000000     4.92000000
   H     76.91000000    66.26000000     6.15000000
   H     78.68000000    68.50000000     5.17000000
   H     79.27000000    66.85000000     3.28000000
   H     77.82000000    67.81000000     3.28000000
   H     79.75000000    66.72000000     6.86000000
   H     79.20000000    65.50000000     5.69000000
   H     80.48000000    66.63000000     5.32000000
   H     77.55000000    65.52000000     2.41000000
   H     77.84000000    64.82000000     3.93000000
   H     76.41000000    65.79000000     3.79000000
   N     76.46000000    67.17000000     8.49000000
   C     75.23000000    66.43000000     8.27000000
   C     75.58000000    64.97000000     8.04000000
   O     74.99000000    64.40000000     7.13000000
   C     74.15000000    66.70000000     9.32000000
   C     74.61000000    66.71000000    10.77000000
   O     73.75000000    66.83000000    11.67000000
   O     75.81000000    66.61000000    11.11000000
   H     76.60000000    67.46000000     9.45000000
   H     74.80000000    66.77000000     7.33000000
   H     73.41000000    65.92000000     9.16000000
   H     73.62000000    67.64000000     9.20000000
   N     76.57000000    64.34000000     8.68000000
   C     76.98000000    62.96000000     8.49000000
   C     76.27000000    61.97000000     9.40000000
   O     75.67000000    62.50000000    10.33000000
   C     78.46000000    62.94000000     8.84000000
   C     78.85000000    63.26000000    10.26000000
   C     79.08000000    64.59000000    10.64000000
   C     79.03000000    62.20000000    11.16000000
   C     79.49000000    64.89000000    11.94000000
   C     79.31000000    62.55000000    12.49000000
   C     79.60000000    63.86000000    12.88000000
   H     77.02000000    64.88000000     9.39000000
   H     76.99000000    62.72000000     7.43000000
   H     78.97000000    63.62000000     8.16000000
   H     78.79000000    61.92000000     8.61000000
   H     79.03000000    65.37000000     9.90000000
   H     78.91000000    61.16000000    10.92000000
   H     79.76000000    65.91000000    12.17000000
   H     79.16000000    61.80000000    13.25000000
   H     79.77000000    64.08000000    13.93000000
   N     76.31000000    60.65000000     9.21000000
   C     76.99000000    59.86000000     8.20000000
   C     76.66000000    60.20000000     6.75000000
   O     75.69000000    60.95000000     6.57000000
   C     76.61000000    58.42000000     8.51000000
   C     76.30000000    58.40000000    10.01000000
   C     75.78000000    59.81000000    10.27000000
   H     78.07000000    59.97000000     8.31000000
   H     75.77000000    58.02000000     7.94000000
   H     77.45000000    57.75000000     8.31000000
   H     75.53000000    57.66000000    10.23000000
   H     77.17000000    58.21000000    10.64000000
   H     74.70000000    59.86000000    10.20000000
   H     76.15000000    60.17000000    11.23000000
   N     77.29000000    59.66000000     5.72000000
   C     77.08000000    59.95000000     4.31000000
   C     78.31000000    59.87000000     3.42000000
   O     78.26000000    59.54000000     2.24000000
   C     76.05000000    58.96000000     3.78000000
   C     75.20000000    59.27000000     2.55000000
   C     74.32000000    58.08000000     2.18000000
   O     74.82000000    57.07000000     1.64000000
   O     73.09000000    58.24000000     2.36000000
   H     78.03000000    58.98000000     5.86000000
   H     76.72000000    60.98000000     4.21000000
   H     75.41000000    58.78000000     4.64000000
   H     76.65000000    58.06000000     3.68000000
   H     75.86000000    59.54000000     1.72000000
   H     74.63000000    60.16000000     2.81000000
   N     79.53000000    60.15000000     3.86000000
   C     80.02000000    60.74000000     5.09000000
   H     80.90300000    61.34300000     4.87700000
   H     79.24500000    61.37200000     5.52400000
   H     80.28200000    59.95000000     5.79400000
   H     80.24000000    60.00000000     3.15000000
  Ca     84.09000000    66.53000000    -2.22900000
   O     83.86000000    66.94000000     0.86000000
   H     83.54000000    67.51000000     1.56000000
   H     84.70000000    67.32000000     0.60000000
   O     84.67000000    64.28000000    -3.68900000
   H     85.36000000    64.38000000    -4.34900000
   H     84.41000000    63.36000000    -3.74900000
   O     85.82000000    64.98000000    -0.95900000
   H     86.12000000    64.17000000    -1.37900000
   H     86.34000000    65.04000000    -0.15900000
   O     82.71000000    64.40000000    -0.91900000
   H     82.59000000    63.61000000    -1.44900000
   H     82.56000000    64.11000000    -0.01900000

Ca 1.00



