%chk=loop3.apoCaM-CA-Ng.Init295.run59.water3.chk
%nprocshared=20
%mem=10GB
%nosave
#b3lyp/svp scf=(tight,noincore,xqc) Test 
#IOP(5/87=12) Density=Current Pop=(MK,readradii) iop(6/33=2) iop(6/42=6)

loop3.apoCaM-CA-Ng.Init295.run59.water3 

   0  1 
   C     89.35000000    58.34000000    26.67000000
   C     89.74000000    56.92000000    26.28000000
   O     89.29000000    55.95000000    26.89000000
   H     88.37000000    58.32900000    27.14700000
   H     90.08700000    58.74200000    27.36500000
   H     89.31300000    58.96500000    25.77800000
   N     90.51000000    56.67000000    25.22000000
   C     90.95000000    55.39000000    24.71000000
   C     92.10000000    54.86000000    25.55000000
   O     92.97000000    55.58000000    26.04000000
   C     91.22000000    55.42000000    23.21000000
   C     91.87000000    54.16000000    22.64000000
   O     91.27000000    53.57000000    21.72000000
   O     93.06000000    53.93000000    22.95000000
   H     91.05000000    57.50000000    24.99000000
   H     90.16000000    54.65000000    24.84000000
   H     91.86000000    56.29000000    23.05000000
   H     90.33000000    55.62000000    22.62000000
   N     92.16000000    53.54000000    25.74000000
   C     93.04000000    52.86000000    26.66000000
   C     94.53000000    53.03000000    26.43000000
   O     95.35000000    52.76000000    27.30000000
   C     92.76000000    51.37000000    26.81000000
   C     93.17000000    50.63000000    25.53000000
   C     92.78000000    49.16000000    25.52000000
   C     93.13000000    48.57000000    24.16000000
   N     94.56000000    48.73000000    23.86000000
   H     91.50000000    52.98000000    25.21000000
   H     92.94000000    53.38000000    27.61000000
   H     91.68000000    51.23000000    26.91000000
   H     93.27000000    50.80000000    27.58000000
   H     94.25000000    50.70000000    25.42000000
   H     92.79000000    51.13000000    24.64000000
   H     91.72000000    49.01000000    25.73000000
   H     93.22000000    48.67000000    26.39000000
   H     92.53000000    48.93000000    23.32000000
   H     92.88000000    47.51000000    24.23000000
   H     94.83000000    49.70000000    23.83000000
   H     95.08000000    48.17000000    24.53000000
   H     94.81000000    48.48000000    22.91000000
   N     94.92000000    53.48000000    25.23000000
   C     96.32000000    53.72000000    24.93000000
   C     96.51000000    55.11000000    24.33000000
   O     97.64000000    55.51000000    24.08000000
   C     96.86000000    52.62000000    24.02000000
   C     95.93000000    52.29000000    22.86000000
   O     96.03000000    52.96000000    21.81000000
   O     95.14000000    51.32000000    22.91000000
   H     94.22000000    53.41000000    24.50000000
   H     96.91000000    53.65000000    25.84000000
   H     97.12000000    51.67000000    24.49000000
   H     97.80000000    53.03000000    23.67000000
   N     95.37000000    55.78000000    24.17000000
   C     95.16000000    57.15000000    23.72000000
   C     94.98000000    57.30000000    22.22000000
   O     94.48000000    58.33000000    21.77000000
   H     94.62000000    55.31000000    24.66000000
   H     95.93000000    57.90000000    23.90000000
   H     94.35000000    57.61000000    24.28000000
   N     95.34000000    56.20000000    21.55000000
   C     95.23000000    56.13000000    20.11000000
   C     93.88000000    55.53000000    19.76000000
   O     93.58000000    54.38000000    20.08000000
   C     96.44000000    55.47000000    19.47000000
   C     96.49000000    55.70000000    17.96000000
   N     97.65000000    56.06000000    17.42000000
   O     95.51000000    55.57000000    17.23000000
   H     95.69000000    55.41000000    22.08000000
   H     95.32000000    57.12000000    19.65000000
   H     96.41000000    54.39000000    19.61000000
   H     97.37000000    55.89000000    19.86000000
   H     98.48000000    55.98000000    17.99000000
   H     97.85000000    56.15000000    16.44000000
   N     93.01000000    56.25000000    19.04000000
   C     91.60000000    55.92000000    19.16000000
   C     91.01000000    54.86000000    18.25000000
   O     89.79000000    54.74000000    18.08000000
   H     93.35000000    57.04000000    18.53000000
   H     91.14000000    56.89000000    18.98000000
   H     91.36000000    55.72000000    20.21000000
   N     91.92000000    54.12000000    17.61000000
   C     91.61000000    52.89000000    16.92000000
   C     91.31000000    51.75000000    17.88000000
   O     91.87000000    51.66000000    18.98000000
   C     92.76000000    52.49000000    16.00000000
   C     92.82000000    53.36000000    14.76000000
   C     93.58000000    54.53000000    14.72000000
   C     92.13000000    52.99000000    13.60000000
   C     93.68000000    55.35000000    13.59000000
   C     92.21000000    53.82000000    12.48000000
   C     93.03000000    54.96000000    12.40000000
   O     93.14000000    55.63000000    11.21000000
   H     92.91000000    54.26000000    17.78000000
   H     90.69000000    53.01000000    16.35000000
   H     92.60000000    51.44000000    15.74000000
   H     93.69000000    52.64000000    16.55000000
   H     93.99000000    54.94000000    15.64000000
   H     91.47000000    52.14000000    13.56000000
   H     94.24000000    56.27000000    13.63000000
   H     91.72000000    53.40000000    11.61000000
   H     92.78000000    55.07000000    10.52000000
   N     90.31000000    50.96000000    17.49000000
   C     89.68000000    49.86000000    18.19000000
   C     90.57000000    48.68000000    18.56000000
   O     91.71000000    48.87000000    18.96000000
   C     89.03000000    50.40000000    19.46000000
   C     88.47000000    49.32000000    20.37000000
   C     87.85000000    51.26000000    19.03000000
   C     87.79000000    49.80000000    21.65000000
   H     89.91000000    51.14000000    16.58000000
   H     88.90000000    49.52000000    17.50000000
   H     89.75000000    50.99000000    20.04000000
   H     89.35000000    48.79000000    20.72000000
   H     87.78000000    48.79000000    19.70000000
   H     88.02000000    51.92000000    18.17000000
   H     86.98000000    50.64000000    18.79000000
   H     87.51000000    51.80000000    19.91000000
   H     87.56000000    48.90000000    22.23000000
   H     88.49000000    50.39000000    22.25000000
   H     86.90000000    50.40000000    21.50000000
   N     90.14000000    47.43000000    18.39000000
   C     90.86000000    46.23000000    18.78000000
   C     90.52000000    44.97000000    18.01000000
   O     91.34000000    44.07000000    17.88000000
   C     90.67000000    45.99000000    20.27000000
   O     89.28000000    45.80000000    20.38000000
   H     89.22000000    47.39000000    17.98000000
   H     91.92000000    46.44000000    18.64000000
   H     90.98000000    46.85000000    20.85000000
   H     91.19000000    45.08000000    20.59000000
   H     89.13000000    45.75000000    21.33000000
   N     89.27000000    44.90000000    17.55000000
   C     88.64000000    43.79000000    16.86000000
   C     88.88000000    42.41000000    17.46000000
   O     89.51000000    41.59000000    16.79000000
   C     88.93000000    43.97000000    15.37000000
   H     88.76000000    45.77000000    17.48000000
   H     87.57000000    43.97000000    16.93000000
   H     88.93000000    45.02000000    15.07000000
   H     89.94000000    43.61000000    15.18000000
   H     88.18000000    43.45000000    14.79000000
   N     88.43000000    42.05000000    18.66000000
   C     87.74000000    42.92000000    19.60000000
   C     86.25000000    42.63000000    19.58000000
   O     85.79000000    41.49000000    19.49000000
   C     88.47000000    42.68000000    20.91000000
   H     88.72000000    41.14000000    18.98000000
   H     87.82000000    43.99000000    19.37000000
   H     88.00000000    43.34000000    21.64000000
   H     88.36000000    41.64000000    21.22000000
   H     89.53000000    42.91000000    20.83000000
   N     85.33000000    43.58000000    19.79000000
   C     85.51000000    45.01000000    19.92000000
   C     84.45000000    45.78000000    19.16000000
   O     84.75000000    46.72000000    18.42000000
   C     85.48000000    45.25000000    21.43000000
   C     85.52000000    46.73000000    21.80000000
   C     85.53000000    46.93000000    23.30000000
   O     84.46000000    46.83000000    23.95000000
   O     86.60000000    47.25000000    23.87000000
   H     84.40000000    43.25000000    20.02000000
   H     86.46000000    45.35000000    19.51000000
   H     86.41000000    44.83000000    21.81000000
   H     84.59000000    44.77000000    21.84000000
   H     84.58000000    47.14000000    21.41000000
   H     86.39000000    47.26000000    21.41000000
   N     83.18000000    45.44000000    19.36000000
   C     82.02000000    46.15000000    18.85000000
   H     81.21600000    46.10500000    19.58400000
   H     82.28300000    47.19100000    18.66400000
   H     81.68900000    45.68600000    17.92100000
   H     83.00000000    44.59000000    19.87000000
  Ca     93.36000000    52.04000000    21.11000000
   O     93.63000000    49.33000000    20.76000000
   H     94.17000000    48.55000000    20.92000000
   H     92.87000000    49.00000000    20.29000000
   O     94.97000000    51.63000000    19.20000000
   H     95.89000000    51.37000000    19.23000000
   H     94.68000000    51.35000000    18.33000000
   O     91.34000000    50.77000000    22.35000000
   H     91.11000000    49.88000000    22.60000000
   H     90.54000000    51.28000000    22.48000000

Ca 1.00



