%chk=loop4.holoCaM-CaMKII.run55.water2.chk
%nprocshared=20
%mem=10GB
%nosave
#b3lyp/svp scf=(tight,noincore,xqc) Test 
#IOP(5/87=12) Density=Current Pop=(MK,readradii) iop(6/33=2) iop(6/42=6)

loop4.holoCaM-CaMKII.run55.water2 

   -3  1 
   C     38.97000000    57.77000000    17.57000000
   C     40.24000000    57.34000000    18.29000000
   O     40.20000000    57.15000000    19.50000000
   H     38.20600000    58.02800000    18.30400000
   H     39.18200000    58.63900000    16.94600000
   H     38.61100000    56.95200000    16.94500000
   N     41.39000000    57.20000000    17.62000000
   C     42.65000000    56.79000000    18.21000000
   C     43.35000000    58.06000000    18.67000000
   O     43.74000000    58.89000000    17.85000000
   C     43.60000000    55.93000000    17.38000000
   C     44.86000000    55.52000000    18.13000000
   O     45.66000000    54.92000000    17.39000000
   O     45.03000000    55.68000000    19.35000000
   H     41.33000000    57.24000000    16.61000000
   H     42.47000000    56.10000000    19.04000000
   H     43.98000000    56.59000000    16.60000000
   H     43.05000000    55.15000000    16.86000000
   N     43.50000000    58.25000000    19.98000000
   C     44.19000000    59.38000000    20.57000000
   C     45.69000000    59.17000000    20.71000000
   O     46.49000000    60.08000000    20.51000000
   C     43.48000000    59.88000000    21.82000000
   C     42.05000000    60.27000000    21.47000000
   C     44.24000000    60.97000000    22.58000000
   C     41.02000000    60.74000000    22.50000000
   H     43.17000000    57.49000000    20.56000000
   H     44.18000000    60.24000000    19.90000000
   H     43.31000000    59.05000000    22.51000000
   H     41.54000000    59.44000000    21.00000000
   H     42.15000000    61.13000000    20.80000000
   H     44.59000000    61.80000000    21.97000000
   H     43.74000000    61.33000000    23.49000000
   H     45.13000000    60.55000000    23.04000000
   H     40.87000000    59.99000000    23.27000000
   H     41.29000000    61.68000000    22.98000000
   H     40.06000000    60.96000000    22.03000000
   N     46.22000000    57.96000000    20.94000000
   C     47.62000000    57.90000000    21.32000000
   C     48.51000000    57.44000000    20.17000000
   O     49.73000000    57.53000000    20.26000000
   C     47.75000000    56.94000000    22.50000000
   C     46.86000000    55.70000000    22.46000000
   O     47.20000000    54.56000000    22.10000000
   O     45.64000000    55.86000000    22.67000000
   H     45.62000000    57.22000000    21.25000000
   H     47.98000000    58.86000000    21.68000000
   H     47.55000000    57.52000000    23.41000000
   H     48.74000000    56.53000000    22.64000000
   N     47.95000000    56.95000000    19.06000000
   C     48.68000000    56.39000000    17.95000000
   C     49.25000000    55.01000000    18.26000000
   O     50.46000000    54.83000000    18.43000000
   H     46.94000000    56.93000000    19.02000000
   H     49.45000000    57.10000000    17.66000000
   H     47.99000000    56.39000000    17.10000000
   N     48.38000000    54.01000000    18.36000000
   C     48.74000000    52.61000000    18.27000000
   C     47.84000000    51.94000000    17.25000000
   O     48.11000000    50.77000000    16.98000000
   C     48.54000000    52.02000000    19.66000000
   C     47.12000000    52.09000000    20.21000000
   O     46.83000000    51.38000000    21.20000000
   O     46.14000000    52.53000000    19.57000000
   H     47.40000000    54.20000000    18.50000000
   H     49.77000000    52.55000000    17.91000000
   H     49.13000000    52.56000000    20.40000000
   H     48.72000000    50.94000000    19.63000000
   N     46.85000000    52.63000000    16.66000000
   C     45.92000000    52.16000000    15.65000000
   C     44.75000000    51.32000000    16.14000000
   O     44.13000000    50.56000000    15.40000000
   H     46.74000000    53.59000000    16.94000000
   H     46.51000000    51.61000000    14.92000000
   H     45.59000000    53.08000000    15.16000000
   N     44.33000000    51.53000000    17.39000000
   C     43.22000000    50.88000000    18.05000000
   C     42.57000000    51.82000000    19.05000000
   O     43.14000000    52.84000000    19.44000000
   C     43.59000000    49.56000000    18.72000000
   C     43.84000000    48.48000000    17.67000000
   C     43.60000000    47.11000000    18.29000000
   N     44.58000000    46.21000000    18.41000000
   O     42.55000000    46.90000000    18.88000000
   H     44.90000000    52.18000000    17.91000000
   H     42.47000000    50.64000000    17.30000000
   H     42.72000000    49.26000000    19.30000000
   H     44.42000000    49.62000000    19.43000000
   H     44.87000000    48.42000000    17.32000000
   H     43.15000000    48.67000000    16.85000000
   H     45.47000000    46.36000000    17.97000000
   H     44.30000000    45.33000000    18.83000000
   N     41.38000000    51.50000000    19.57000000
   C     40.59000000    52.39000000    20.39000000
   C     40.19000000    51.54000000    21.59000000
   O     39.58000000    50.48000000    21.52000000
   C     39.40000000    52.89000000    19.58000000
   C     38.45000000    53.75000000    20.40000000
   C     39.97000000    53.83000000    18.52000000
   H     40.87000000    50.69000000    19.24000000
   H     41.10000000    53.28000000    20.76000000
   H     38.80000000    52.12000000    19.09000000
   H     39.01000000    54.66000000    20.59000000
   H     37.48000000    53.92000000    19.92000000
   H     38.28000000    53.26000000    21.36000000
   H     40.50000000    53.38000000    17.69000000
   H     39.20000000    54.43000000    18.03000000
   H     40.66000000    54.60000000    18.89000000
   N     40.56000000    51.99000000    22.79000000
   C     40.16000000    51.36000000    24.04000000
   C     39.01000000    52.12000000    24.68000000
   O     38.78000000    53.26000000    24.28000000
   C     41.37000000    51.24000000    24.95000000
   C     41.51000000    52.37000000    25.96000000
   N     42.12000000    53.48000000    25.53000000
   O     41.04000000    52.33000000    27.09000000
   H     41.06000000    52.87000000    22.80000000
   H     39.76000000    50.35000000    23.96000000
   H     42.30000000    51.25000000    24.38000000
   H     41.49000000    50.35000000    25.58000000
   H     42.52000000    53.52000000    24.60000000
   H     42.38000000    54.09000000    26.29000000
   N     38.33000000    51.63000000    25.73000000
   C     37.26000000    52.31000000    26.42000000
   C     37.54000000    53.70000000    26.98000000
   O     36.67000000    54.56000000    26.86000000
   C     36.65000000    51.48000000    27.54000000
   C     35.40000000    51.98000000    28.22000000
   C     34.18000000    51.95000000    27.53000000
   C     35.47000000    52.51000000    29.52000000
   C     33.08000000    52.64000000    28.06000000
   C     34.35000000    53.15000000    30.06000000
   C     33.17000000    53.28000000    29.32000000
   O     32.13000000    53.97000000    29.85000000
   H     38.49000000    50.69000000    26.06000000
   H     36.43000000    52.43000000    25.72000000
   H     37.39000000    51.39000000    28.33000000
   H     36.47000000    50.46000000    27.19000000
   H     34.12000000    51.51000000    26.55000000
   H     36.40000000    52.56000000    30.07000000
   H     32.10000000    52.63000000    27.61000000
   H     34.50000000    53.60000000    31.03000000
   H     32.28000000    54.36000000    30.72000000
   N     38.76000000    53.98000000    27.44000000
   C     39.13000000    55.33000000    27.83000000
   C     39.10000000    56.33000000    26.69000000
   O     38.90000000    57.50000000    27.00000000
   C     40.52000000    55.23000000    28.47000000
   C     40.91000000    56.50000000    29.21000000
   C     42.24000000    56.38000000    29.95000000
   O     43.17000000    57.18000000    29.69000000
   O     42.35000000    55.52000000    30.84000000
   H     39.44000000    53.24000000    27.44000000
   H     38.51000000    55.72000000    28.63000000
   H     41.24000000    55.11000000    27.66000000
   H     40.53000000    54.40000000    29.17000000
   H     40.13000000    56.70000000    29.95000000
   H     40.94000000    57.37000000    28.55000000
   N     39.25000000    55.90000000    25.43000000
   C     39.01000000    56.68000000    24.23000000
   C     37.61000000    56.53000000    23.66000000
   O     37.16000000    57.38000000    22.88000000
   C     40.02000000    56.24000000    23.17000000
   C     41.50000000    56.24000000    23.55000000
   C     42.35000000    55.37000000    22.65000000
   O     42.93000000    55.84000000    21.64000000
   O     42.43000000    54.14000000    22.83000000
   H     39.29000000    54.90000000    25.32000000
   H     39.15000000    57.73000000    24.47000000
   H     39.82000000    56.80000000    22.26000000
   H     39.84000000    55.17000000    23.04000000
   H     41.70000000    55.96000000    24.58000000
   H     41.87000000    57.27000000    23.54000000
   N     36.83000000    55.50000000    23.99000000
   C     35.46000000    55.30000000    23.57000000
   H     34.85600000    56.15000000    23.88700000
   H     35.42100000    55.21200000    22.48400000
   H     35.07000000    54.38800000    24.02300000
   H     37.20000000    54.82000000    24.64000000
  Ca     44.59000000    53.94000000    21.29000000
   O     45.04000000    52.74000000    23.73000000
   H     44.85000000    52.24000000    24.52000000
   H     45.97000000    52.59000000    23.57000000
   O     44.17000000    51.11000000    21.49000000
   H     45.10000000    51.12000000    21.24000000
   H     43.92000000    50.19000000    21.42000000

Ca 1.00



