%chk=loop1.apoCaM-CA-Ng.Init293.run21.water4.chk
%nprocshared=20
%mem=10GB
%nosave
#b3lyp/svp scf=(tight,noincore,xqc) Test 
#IOP(5/87=12) Density=Current Pop=(MK,readradii) iop(6/33=2) iop(6/42=6)

loop1.apoCaM-CA-Ng.Init293.run21.water4 

   0  1 
   C     51.29000000   -13.98000000    32.47000000
   C     51.34000000   -15.47000000    32.78000000
   O     51.78000000   -16.29000000    31.98000000
   H     50.59100000   -13.49100000    33.14900000
   H     52.28200000   -13.54800000    32.59800000
   H     50.95900000   -13.83300000    31.44200000
   N     50.93000000   -15.88000000    33.98000000
   C     50.84000000   -17.26000000    34.42000000
   C     49.53000000   -17.64000000    35.09000000
   O     49.59000000   -18.45000000    36.01000000
   C     52.09000000   -17.63000000    35.22000000
   C     52.43000000   -16.70000000    36.37000000
   O     51.69000000   -15.81000000    36.83000000
   O     53.50000000   -16.85000000    36.99000000
   H     50.63000000   -15.20000000    34.67000000
   H     50.87000000   -17.95000000    33.57000000
   H     52.89000000   -17.50000000    34.50000000
   H     52.01000000   -18.70000000    35.43000000
   N     48.41000000   -17.05000000    34.68000000
   C     47.05000000   -17.42000000    35.04000000
   C     46.20000000   -17.39000000    33.77000000
   O     45.66000000   -16.35000000    33.39000000
   C     46.53000000   -16.45000000    36.09000000
   C     45.10000000   -16.73000000    36.54000000
   C     44.72000000   -15.62000000    37.51000000
   C     43.46000000   -15.77000000    38.35000000
   N     42.24000000   -15.63000000    37.53000000
   H     48.43000000   -16.51000000    33.83000000
   H     46.89000000   -18.38000000    35.52000000
   H     46.57000000   -15.46000000    35.63000000
   H     47.28000000   -16.40000000    36.87000000
   H     45.15000000   -17.65000000    37.13000000
   H     44.42000000   -16.82000000    35.69000000
   H     44.65000000   -14.65000000    37.01000000
   H     45.52000000   -15.61000000    38.25000000
   H     43.51000000   -15.06000000    39.17000000
   H     43.55000000   -16.76000000    38.80000000
   H     42.16000000   -16.38000000    36.86000000
   H     41.39000000   -15.65000000    38.07000000
   H     42.28000000   -14.75000000    37.03000000
   N     46.10000000   -18.44000000    32.96000000
   C     46.48000000   -19.83000000    32.97000000
   C     45.74000000   -20.69000000    34.00000000
   O     45.38000000   -20.22000000    35.07000000
   C     47.99000000   -20.02000000    32.90000000
   C     48.60000000   -19.22000000    31.75000000
   O     49.84000000   -19.33000000    31.63000000
   O     48.00000000   -18.41000000    31.02000000
   H     45.61000000   -18.17000000    32.11000000
   H     46.06000000   -20.27000000    32.07000000
   H     48.16000000   -21.09000000    32.75000000
   H     48.57000000   -19.79000000    33.79000000
   N     45.69000000   -22.02000000    33.83000000
   C     46.08000000   -22.88000000    32.74000000
   C     46.58000000   -24.20000000    33.30000000
   O     45.86000000   -24.73000000    34.15000000
   H     45.35000000   -22.53000000    34.63000000
   H     46.75000000   -22.39000000    32.03000000
   H     45.31000000   -23.08000000    31.99000000
   N     47.75000000   -24.75000000    32.96000000
   C     48.70000000   -24.28000000    31.98000000
   C     49.74000000   -23.34000000    32.56000000
   O     50.25000000   -22.57000000    31.74000000
   C     49.42000000   -25.38000000    31.20000000
   C     50.25000000   -26.33000000    32.06000000
   O     51.44000000   -26.05000000    32.29000000
   O     49.59000000   -27.21000000    32.66000000
   H     47.96000000   -25.69000000    33.29000000
   H     48.13000000   -23.69000000    31.26000000
   H     49.94000000   -24.86000000    30.40000000
   H     48.74000000   -25.95000000    30.56000000
   N     50.05000000   -23.38000000    33.85000000
   C     50.97000000   -22.47000000    34.50000000
   C     52.43000000   -22.55000000    34.10000000
   O     53.21000000   -21.75000000    34.61000000
   H     49.66000000   -24.08000000    34.47000000
   H     51.01000000   -22.68000000    35.57000000
   H     50.58000000   -21.45000000    34.39000000
   N     52.90000000   -23.41000000    33.20000000
   C     54.20000000   -23.33000000    32.56000000
   C     54.39000000   -22.12000000    31.65000000
   O     53.50000000   -21.69000000    30.92000000
   C     54.51000000   -24.69000000    31.94000000
   C     56.01000000   -24.93000000    31.82000000
   O     53.93000000   -24.84000000    30.66000000
   H     52.29000000   -24.15000000    32.87000000
   H     54.89000000   -23.18000000    33.39000000
   H     54.13000000   -25.48000000    32.59000000
   H     54.14000000   -25.72000000    30.36000000
   H     56.54000000   -24.89000000    32.78000000
   H     56.24000000   -25.89000000    31.36000000
   H     56.50000000   -24.28000000    31.10000000
   N     55.55000000   -21.47000000    31.76000000
   C     55.80000000   -20.07000000    31.46000000
   C     57.27000000   -19.99000000    31.07000000
   O     58.15000000   -19.63000000    31.86000000
   C     55.44000000   -19.07000000    32.55000000
   C     55.85000000   -17.63000000    32.25000000
   C     55.90000000   -19.41000000    33.96000000
   C     55.41000000   -16.44000000    33.11000000
   H     56.28000000   -21.92000000    32.28000000
   H     55.19000000   -19.76000000    30.61000000
   H     54.36000000   -19.03000000    32.62000000
   H     55.47000000   -17.47000000    31.25000000
   H     56.93000000   -17.72000000    32.07000000
   H     56.99000000   -19.45000000    33.98000000
   H     55.59000000   -18.65000000    34.67000000
   H     55.31000000   -20.30000000    34.21000000
   H     55.94000000   -16.51000000    34.06000000
   H     55.79000000   -15.52000000    32.65000000
   H     54.34000000   -16.42000000    33.27000000
   N     57.52000000   -20.34000000    29.81000000
   C     58.75000000   -20.19000000    29.05000000
   C     58.60000000   -19.56000000    27.67000000
   O     59.54000000   -19.65000000    26.89000000
   C     59.52000000   -21.50000000    28.90000000
   C     58.90000000   -22.64000000    28.09000000
   O     59.72000000   -22.01000000    30.20000000
   H     56.77000000   -20.71000000    29.25000000
   H     59.38000000   -19.52000000    29.63000000
   H     60.50000000   -21.35000000    28.46000000
   H     60.34000000   -21.42000000    30.64000000
   H     59.65000000   -23.43000000    28.08000000
   H     58.07000000   -22.96000000    28.73000000
   H     58.64000000   -22.25000000    27.11000000
   N     57.48000000   -18.87000000    27.45000000
   C     57.02000000   -18.37000000    26.17000000
   C     56.78000000   -19.49000000    25.18000000
   O     56.83000000   -20.68000000    25.52000000
   C     57.89000000   -17.21000000    25.69000000
   C     57.94000000   -16.10000000    26.73000000
   O     57.34000000   -16.69000000    24.50000000
   H     56.83000000   -18.94000000    28.22000000
   H     56.08000000   -17.89000000    26.46000000
   H     58.89000000   -17.57000000    25.46000000
   H     57.51000000   -15.75000000    24.63000000
   H     58.48000000   -15.24000000    26.35000000
   H     56.97000000   -15.70000000    27.02000000
   H     58.47000000   -16.49000000    27.60000000
   N     56.50000000   -19.23000000    23.90000000
   C     56.47000000   -20.16000000    22.80000000
   C     55.23000000   -21.02000000    22.57000000
   O     55.31000000   -22.06000000    21.92000000
   C     56.72000000   -19.28000000    21.57000000
   C     58.17000000   -18.96000000    21.24000000
   C     59.12000000   -20.06000000    20.76000000
   C     60.40000000   -19.37000000    20.30000000
   N     60.31000000   -19.10000000    18.86000000
   H     56.59000000   -18.22000000    23.85000000
   H     57.30000000   -20.86000000    22.85000000
   H     56.14000000   -18.36000000    21.58000000
   H     56.14000000   -19.77000000    20.79000000
   H     58.60000000   -18.47000000    22.12000000
   H     58.05000000   -18.18000000    20.50000000
   H     58.77000000   -20.54000000    19.85000000
   H     59.29000000   -20.78000000    21.56000000
   H     61.27000000   -19.98000000    20.52000000
   H     60.58000000   -18.45000000    20.86000000
   H     61.23000000   -18.96000000    18.48000000
   H     59.88000000   -19.80000000    18.28000000
   H     59.74000000   -18.30000000    18.61000000
   N     54.04000000   -20.84000000    23.14000000
   C     53.38000000   -19.67000000    23.68000000
   C     53.68000000   -18.37000000    22.95000000
   O     54.12000000   -17.42000000    23.60000000
   C     53.33000000   -19.63000000    25.21000000
   C     52.95000000   -20.95000000    25.88000000
   C     52.29000000   -20.65000000    27.22000000
   O     51.08000000   -20.87000000    27.42000000
   O     52.97000000   -20.20000000    28.17000000
   H     53.45000000   -21.66000000    23.08000000
   H     52.35000000   -19.87000000    23.40000000
   H     52.50000000   -18.94000000    25.28000000
   H     54.21000000   -19.20000000    25.70000000
   H     53.84000000   -21.58000000    25.86000000
   H     52.16000000   -21.43000000    25.31000000
   N     53.35000000   -18.35000000    21.65000000
   C     53.38000000   -17.11000000    20.90000000
   H     54.33600000   -16.61200000    21.06100000
   H     53.25600000   -17.32400000    19.83800000
   H     52.57200000   -16.46100000    21.23700000
   H     53.03000000   -19.17000000    21.16000000
  Ca     51.29000000   -20.49800000    30.00000000
   O     51.57000000   -23.15800000    29.24000000
   H     51.26000000   -23.68800000    28.50000000
   H     51.68000000   -23.78800000    29.95000000
   O     52.59000000   -18.34800000    30.61000000
   H     52.11000000   -17.55800000    30.87000000
   H     53.29000000   -18.41800000    31.26000000
   O     49.79000000   -18.38800000    29.09000000
   H     49.54000000   -17.73800000    28.43000000
   H     49.29000000   -18.13800000    29.87000000
   O     48.80000000   -21.35800000    29.44000000
   H     48.43000000   -22.20800000    29.20000000
   H     48.18000000   -20.71800000    29.09000000

Ca 1.00



