%chk=loop1.apoCaM-CA-Ng.Init31.run64.water4.chk
%nprocshared=20
%mem=10GB
%nosave
#b3lyp/svp scf=(tight,noincore,xqc) Test 
#IOP(5/87=12) Density=Current Pop=(MK,readradii) iop(6/33=2) iop(6/42=6)

loop1.apoCaM-CA-Ng.Init31.run64.water4 

   0  1 
   C     74.12000000    79.03000000    17.56000000
   C     73.51000000    79.08000000    16.16000000
   O     72.69000000    79.95000000    15.89000000
   H     75.01000000    79.65800000    17.59000000
   H     73.39400000    79.39500000    18.28700000
   H     74.39200000    78.00300000    17.80200000
   N     73.83000000    78.20000000    15.21000000
   C     73.21000000    78.13000000    13.91000000
   C     71.98000000    77.24000000    14.02000000
   O     71.92000000    76.28000000    14.79000000
   C     74.20000000    77.52000000    12.91000000
   C     73.83000000    77.84000000    11.47000000
   O     72.95000000    78.70000000    11.23000000
   O     74.50000000    77.27000000    10.59000000
   H     74.56000000    77.52000000    15.41000000
   H     73.00000000    79.13000000    13.55000000
   H     74.40000000    76.46000000    13.04000000
   H     75.13000000    78.05000000    13.13000000
   N     71.04000000    77.48000000    13.10000000
   C     69.72000000    76.89000000    13.10000000
   C     69.61000000    75.46000000    12.60000000
   O     68.88000000    74.68000000    13.21000000
   C     68.64000000    77.78000000    12.49000000
   C     68.61000000    79.10000000    13.25000000
   C     67.39000000    79.94000000    12.87000000
   C     67.45000000    81.36000000    13.45000000
   N     67.66000000    81.41000000    14.90000000
   H     71.31000000    78.13000000    12.38000000
   H     69.40000000    76.83000000    14.15000000
   H     67.64000000    77.41000000    12.70000000
   H     68.78000000    77.95000000    11.43000000
   H     69.49000000    79.72000000    13.06000000
   H     68.59000000    78.86000000    14.31000000
   H     66.56000000    79.46000000    13.38000000
   H     67.31000000    79.95000000    11.78000000
   H     66.53000000    81.90000000    13.26000000
   H     68.15000000    82.02000000    12.93000000
   H     67.78000000    82.37000000    15.19000000
   H     66.94000000    80.83000000    15.31000000
   H     68.48000000    80.88000000    15.19000000
   N     70.22000000    74.97000000    11.52000000
   C     71.22000000    75.52000000    10.62000000
   C     72.28000000    74.45000000    10.40000000
   O     71.86000000    73.30000000    10.35000000
   C     70.56000000    75.71000000     9.26000000
   C     71.51000000    76.07000000     8.13000000
   O     72.32000000    77.00000000     8.33000000
   O     71.33000000    75.51000000     7.02000000
   H     70.01000000    73.99000000    11.43000000
   H     71.69000000    76.46000000    10.91000000
   H     69.86000000    76.55000000     9.34000000
   H     70.04000000    74.82000000     8.92000000
   N     73.57000000    74.74000000    10.22000000
   C     74.55000000    73.72000000     9.89000000
   C     75.96000000    74.26000000     9.69000000
   O     76.66000000    74.41000000    10.68000000
   H     73.93000000    75.67000000    10.37000000
   H     74.29000000    73.17000000     8.99000000
   H     74.50000000    72.98000000    10.68000000
   N     76.37000000    74.40000000     8.42000000
   C     77.64000000    74.95000000     8.00000000
   C     78.54000000    73.88000000     7.38000000
   O     78.06000000    72.99000000     6.69000000
   C     77.48000000    76.16000000     7.09000000
   C     76.41000000    77.15000000     7.55000000
   O     76.73000000    77.98000000     8.44000000
   O     75.23000000    77.04000000     7.18000000
   H     75.85000000    73.94000000     7.69000000
   H     78.17000000    75.29000000     8.88000000
   H     77.37000000    75.97000000     6.02000000
   H     78.40000000    76.73000000     7.15000000
   N     79.85000000    73.77000000     7.55000000
   C     80.70000000    74.76000000     8.19000000
   C     81.41000000    75.74000000     7.28000000
   O     82.01000000    76.74000000     7.67000000
   H     80.35000000    72.91000000     7.36000000
   H     81.50000000    74.23000000     8.70000000
   H     80.18000000    75.33000000     8.97000000
   N     81.38000000    75.53000000     5.96000000
   C     82.06000000    76.28000000     4.93000000
   C     83.54000000    76.37000000     5.27000000
   O     84.16000000    77.40000000     5.03000000
   C     81.32000000    77.60000000     4.72000000
   C     79.89000000    77.40000000     4.22000000
   O     81.92000000    78.33000000     3.67000000
   H     80.99000000    74.68000000     5.57000000
   H     82.04000000    75.74000000     3.98000000
   H     81.40000000    78.16000000     5.65000000
   H     82.75000000    78.59000000     4.06000000
   H     79.44000000    78.38000000     4.09000000
   H     79.74000000    76.84000000     3.29000000
   H     79.35000000    76.89000000     5.02000000
   N     84.16000000    75.27000000     5.72000000
   C     85.57000000    74.98000000     5.59000000
   C     86.28000000    75.18000000     4.25000000
   O     86.53000000    74.21000000     3.54000000
   C     86.45000000    75.46000000     6.73000000
   C     85.80000000    75.33000000     8.10000000
   C     87.93000000    75.09000000     6.78000000
   C     85.57000000    73.92000000     8.65000000
   H     83.61000000    74.47000000     5.99000000
   H     85.65000000    73.90000000     5.74000000
   H     86.45000000    76.54000000     6.62000000
   H     84.83000000    75.83000000     8.00000000
   H     86.45000000    75.89000000     8.76000000
   H     88.46000000    75.79000000     7.42000000
   H     88.04000000    74.12000000     7.26000000
   H     88.36000000    75.08000000     5.78000000
   H     84.88000000    73.39000000     7.99000000
   H     86.52000000    73.39000000     8.68000000
   H     85.07000000    74.07000000     9.61000000
   N     86.52000000    76.44000000     3.89000000
   C     87.46000000    76.90000000     2.88000000
   C     88.00000000    78.24000000     3.35000000
   O     87.42000000    78.96000000     4.15000000
   C     86.78000000    77.21000000     1.55000000
   C     85.63000000    78.21000000     1.64000000
   O     86.35000000    75.98000000     1.00000000
   H     86.17000000    77.14000000     4.52000000
   H     88.22000000    76.15000000     2.66000000
   H     87.59000000    77.63000000     0.96000000
   H     85.56000000    75.81000000     1.52000000
   H     85.07000000    78.17000000     0.70000000
   H     84.94000000    78.04000000     2.47000000
   H     86.05000000    79.20000000     1.48000000
   N     89.17000000    78.63000000     2.83000000
   C     89.83000000    79.89000000     3.12000000
   C     89.17000000    81.15000000     2.57000000
   O     88.44000000    81.12000000     1.58000000
   C     91.26000000    79.83000000     2.60000000
   C     92.17000000    78.71000000     3.11000000
   O     91.38000000    79.59000000     1.22000000
   H     89.62000000    78.03000000     2.16000000
   H     89.93000000    79.89000000     4.21000000
   H     91.79000000    80.74000000     2.90000000
   H     92.32000000    79.58000000     1.01000000
   H     93.19000000    79.01000000     2.87000000
   H     92.19000000    78.75000000     4.19000000
   H     91.89000000    77.73000000     2.72000000
   N     89.52000000    82.27000000     3.19000000
   C     89.11000000    83.61000000     2.84000000
   C     87.60000000    83.80000000     2.92000000
   O     86.98000000    84.42000000     2.06000000
   C     89.72000000    83.98000000     1.49000000
   C     91.17000000    84.41000000     1.65000000
   C     92.05000000    84.42000000     0.41000000
   C     91.59000000    85.17000000    -0.83000000
   N     92.52000000    84.88000000    -1.93000000
   H     90.09000000    82.27000000     4.03000000
   H     89.52000000    84.30000000     3.58000000
   H     89.23000000    84.88000000     1.12000000
   H     89.57000000    83.33000000     0.62000000
   H     91.61000000    83.57000000     2.19000000
   H     91.33000000    85.29000000     2.28000000
   H     92.31000000    83.39000000     0.15000000
   H     92.97000000    84.95000000     0.68000000
   H     91.53000000    86.25000000    -0.67000000
   H     90.60000000    84.82000000    -1.11000000
   H     93.50000000    84.98000000    -1.71000000
   H     92.27000000    83.96000000    -2.29000000
   H     92.34000000    85.49000000    -2.72000000
   N     86.96000000    83.05000000     3.82000000
   C     85.52000000    82.95000000     3.97000000
   C     84.93000000    81.59000000     4.35000000
   O     84.06000000    81.12000000     3.62000000
   C     85.07000000    84.00000000     4.99000000
   C     85.04000000    85.47000000     4.60000000
   C     84.67000000    86.41000000     5.75000000
   O     85.64000000    86.81000000     6.42000000
   O     83.51000000    86.87000000     5.85000000
   H     87.57000000    82.55000000     4.44000000
   H     85.04000000    83.13000000     3.01000000
   H     85.87000000    83.94000000     5.73000000
   H     84.06000000    83.74000000     5.32000000
   H     84.30000000    85.65000000     3.81000000
   H     86.00000000    85.78000000     4.19000000
   N     85.36000000    80.90000000     5.40000000
   C     86.21000000    81.33000000     6.49000000
   H     87.09900000    81.81600000     6.08700000
   H     85.66600000    82.03400000     7.12000000
   H     86.50700000    80.46500000     7.08300000
   H     85.01000000    79.96000000     5.49000000
  Ca     74.08000000    78.79000000     8.57000000
   O     75.25000000    80.33000000    10.31000000
   H     75.71000000    81.16000000    10.37000000
   H     75.19000000    80.01000000    11.21000000
   O     71.78000000    80.07000000     8.68000000
   H     71.64000000    80.46000000     9.54000000
   H     70.91000000    79.77000000     8.41000000
   O     73.68000000    78.77000000     5.91000000
   H     73.98000000    79.35000000     5.20000000
   H     74.14000000    77.95000000     5.76000000
   O     75.68000000    80.53000000     7.25000000
   H     76.22000000    81.31000000     7.38000000
   H     76.03000000    80.13000000     6.46000000

Ca 1.00



