%chk=loop3.holoCaM.run34.water2.chk
%nprocshared=20
%mem=10GB
%nosave
#b3lyp/svp scf=(tight,noincore,xqc) Test 
#IOP(5/87=12) Density=Current Pop=(MK,readradii) iop(6/33=2) iop(6/42=6)

loop3.holoCaM.run34.water2 

   0  1 
   C     93.48000000    56.75000000     5.75000000
   C     94.55000000    57.45000000     4.93000000
   O     95.45000000    56.83000000     4.37000000
   H     92.56800000    56.66600000     5.16000000
   H     93.82700000    55.75400000     6.02600000
   H     93.27700000    57.32800000     6.65200000
   N     94.72000000    58.77000000     5.10000000
   C     95.88000000    59.57000000     4.74000000
   C     97.00000000    59.55000000     5.77000000
   O     96.74000000    60.06000000     6.86000000
   C     95.52000000    61.04000000     4.52000000
   C     96.54000000    61.91000000     3.81000000
   O     96.17000000    63.06000000     3.47000000
   O     97.69000000    61.45000000     3.65000000
   H     93.99000000    59.22000000     5.63000000
   H     96.19000000    59.30000000     3.74000000
   H     95.30000000    61.61000000     5.42000000
   H     94.62000000    61.10000000     3.91000000
   N     98.18000000    58.98000000     5.50000000
   C     99.27000000    58.76000000     6.42000000
   C    100.31000000    59.87000000     6.36000000
   O    101.36000000    59.74000000     6.98000000
   C     99.94000000    57.41000000     6.13000000
   C     99.01000000    56.21000000     5.98000000
   C     99.75000000    54.87000000     5.91000000
   C    100.59000000    54.53000000     7.13000000
   N     99.86000000    54.60000000     8.41000000
   H     98.26000000    58.65000000     4.55000000
   H     98.86000000    58.72000000     7.43000000
   H    100.64000000    57.13000000     6.91000000
   H    100.53000000    57.48000000     5.22000000
   H     98.29000000    56.25000000     5.16000000
   H     98.45000000    56.22000000     6.92000000
   H    100.31000000    54.91000000     4.97000000
   H     98.91000000    54.19000000     5.73000000
   H    101.49000000    55.15000000     7.15000000
   H    100.90000000    53.50000000     6.93000000
   H    100.37000000    54.03000000     9.06000000
   H     99.79000000    55.55000000     8.76000000
   H     98.94000000    54.20000000     8.36000000
   N    100.13000000    60.93000000     5.57000000
   C    101.12000000    61.98000000     5.44000000
   C    100.46000000    63.35000000     5.47000000
   O    101.08000000    64.35000000     5.84000000
   C    101.79000000    61.75000000     4.09000000
   C    100.88000000    61.66000000     2.87000000
   O    100.57000000    60.51000000     2.50000000
   O    100.31000000    62.66000000     2.37000000
   H     99.24000000    61.13000000     5.15000000
   H    101.85000000    61.86000000     6.24000000
   H    102.39000000    60.84000000     4.21000000
   H    102.56000000    62.51000000     4.00000000
   N     99.19000000    63.34000000     5.08000000
   C     98.30000000    64.46000000     5.33000000
   C     98.19000000    65.50000000     4.22000000
   O     97.58000000    66.52000000     4.54000000
   H     98.73000000    62.58000000     4.60000000
   H     98.62000000    64.86000000     6.29000000
   H     97.31000000    63.99000000     5.37000000
   N     98.68000000    65.21000000     3.02000000
   C     98.45000000    66.05000000     1.86000000
   C     96.99000000    66.28000000     1.50000000
   O     96.61000000    67.20000000     0.78000000
   C     99.23000000    65.55000000     0.64000000
   C     98.86000000    64.17000000     0.12000000
   N     99.37000000    63.57000000    -0.96000000
   O     98.00000000    63.50000000     0.68000000
   H     99.13000000    64.31000000     2.89000000
   H     98.89000000    67.01000000     2.10000000
   H    100.29000000    65.55000000     0.87000000
   H     99.13000000    66.22000000    -0.21000000
   H    100.05000000    64.02000000    -1.56000000
   H     98.79000000    62.82000000    -1.32000000
   N     96.02000000    65.60000000     2.13000000
   C     94.59000000    65.74000000     1.97000000
   C     94.02000000    64.77000000     0.95000000
   O     92.92000000    64.99000000     0.45000000
   H     96.38000000    64.82000000     2.66000000
   H     94.27000000    66.69000000     1.53000000
   H     94.07000000    65.58000000     2.92000000
   N     94.77000000    63.80000000     0.42000000
   C     94.37000000    62.81000000    -0.56000000
   C     94.98000000    61.47000000    -0.18000000
   O     95.91000000    61.28000000     0.59000000
   C     94.82000000    63.17000000    -1.97000000
   C     94.82000000    64.63000000    -2.36000000
   C     95.83000000    65.55000000    -2.06000000
   C     93.63000000    65.14000000    -2.90000000
   C     95.74000000    66.89000000    -2.47000000
   C     93.50000000    66.45000000    -3.37000000
   C     94.59000000    67.32000000    -3.15000000
   O     94.43000000    68.62000000    -3.52000000
   H     95.60000000    63.55000000     0.93000000
   H     93.28000000    62.84000000    -0.46000000
   H     94.21000000    62.56000000    -2.64000000
   H     95.85000000    62.86000000    -2.14000000
   H     96.70000000    65.10000000    -1.60000000
   H     92.82000000    64.43000000    -2.95000000
   H     96.54000000    67.54000000    -2.16000000
   H     92.62000000    66.79000000    -3.90000000
   H     93.57000000    68.89000000    -3.83000000
   N     94.56000000    60.40000000    -0.87000000
   C     95.02000000    59.05000000    -0.65000000
   C     95.65000000    58.55000000    -1.95000000
   O     95.17000000    58.79000000    -3.05000000
   C     93.95000000    58.10000000    -0.12000000
   C     92.78000000    58.72000000     0.65000000
   C     94.42000000    56.77000000     0.46000000
   C     93.15000000    59.18000000     2.06000000
   H     93.78000000    60.45000000    -1.51000000
   H     95.84000000    59.03000000     0.07000000
   H     93.42000000    57.79000000    -1.02000000
   H     92.07000000    57.90000000     0.71000000
   H     92.36000000    59.59000000     0.14000000
   H     93.63000000    56.08000000     0.78000000
   H     95.21000000    56.36000000    -0.18000000
   H     95.01000000    56.98000000     1.34000000
   H     93.98000000    59.88000000     2.11000000
   H     92.34000000    59.58000000     2.68000000
   H     93.38000000    58.26000000     2.60000000
   N     96.72000000    57.77000000    -1.80000000
   C     97.39000000    57.07000000    -2.88000000
   C     97.17000000    55.56000000    -2.79000000
   O     96.59000000    55.01000000    -1.86000000
   C     98.90000000    57.27000000    -2.75000000
   O     99.42000000    56.64000000    -1.60000000
   H     96.92000000    57.46000000    -0.86000000
   H     97.03000000    57.48000000    -3.82000000
   H     99.14000000    58.33000000    -2.83000000
   H     99.37000000    56.85000000    -3.64000000
   H     99.18000000    57.16000000    -0.83000000
   N     97.56000000    54.82000000    -3.83000000
   C     97.37000000    53.38000000    -3.92000000
   C     98.03000000    52.65000000    -2.76000000
   O     97.33000000    51.93000000    -2.05000000
   C     97.72000000    52.91000000    -5.33000000
   H     97.88000000    55.35000000    -4.63000000
   H     96.30000000    53.22000000    -3.84000000
   H     98.80000000    52.74000000    -5.37000000
   H     97.23000000    51.95000000    -5.50000000
   H     97.49000000    53.61000000    -6.13000000
   N     99.30000000    52.88000000    -2.45000000
   C    100.05000000    52.41000000    -1.31000000
   C     99.41000000    52.61000000     0.06000000
   O     99.36000000    51.66000000     0.83000000
   C    101.44000000    53.06000000    -1.32000000
   H     99.76000000    53.56000000    -3.05000000
   H    100.22000000    51.34000000    -1.46000000
   H    101.42000000    54.13000000    -1.13000000
   H    102.10000000    52.60000000    -0.58000000
   H    101.81000000    52.88000000    -2.33000000
   N     98.78000000    53.77000000     0.28000000
   C     98.01000000    54.09000000     1.47000000
   C     96.66000000    53.39000000     1.46000000
   O     96.19000000    53.08000000     2.55000000
   C     97.78000000    55.57000000     1.72000000
   C     99.03000000    56.44000000     1.62000000
   C     98.69000000    57.92000000     1.51000000
   O     98.57000000    58.57000000     2.57000000
   O     98.48000000    58.56000000     0.46000000
   H     98.84000000    54.45000000    -0.46000000
   H     98.58000000    53.68000000     2.31000000
   H     97.32000000    55.67000000     2.70000000
   H     97.10000000    55.90000000     0.92000000
   H     99.69000000    56.07000000     0.84000000
   H     99.67000000    56.33000000     2.50000000
   N     96.12000000    53.01000000     0.31000000
   C     94.91000000    52.22000000     0.14000000
   H     94.12000000    52.85000000    -0.26800000
   H     95.10700000    51.39500000    -0.54500000
   H     94.59500000    51.82400000     1.10500000
   H     96.69000000    53.16000000    -0.52000000
  Ca     98.46000000    60.94000000     1.21000000
   O    100.82600000    61.13000000    -0.32600000
   H    101.40600000    61.20000000    -1.08600000
   H    101.35600000    61.44000000     0.41400000
   O     98.18000000    61.09000000    -1.74600000
   H     97.71000000    61.36000000    -2.53600000
   H     99.05000000    60.84000000    -2.06600000

Ca 1.00



