%chk=loop4.holoCaM.run58.water2.chk
%nprocshared=20
%mem=10GB
%nosave
#b3lyp/svp scf=(tight,noincore,xqc) Test 
#IOP(5/87=12) Density=Current Pop=(MK,readradii) iop(6/33=2) iop(6/42=6)

loop4.holoCaM.run58.water2 

   -3  1 
   C     81.31000000    59.36000000     1.47900000
   C     80.33000000    60.45000000     1.87900000
   O     79.82000000    61.15000000     1.01900000
   H     82.23700000    59.48200000     2.03900000
   H     80.87900000    58.38400000     1.70000000
   H     81.51900000    59.43200000     0.41200000
   N     80.22000000    60.78000000     3.16900000
   C     79.53000000    61.94000000     3.68900000
   C     80.44000000    63.14000000     3.53900000
   O     81.56000000    63.09000000     4.04900000
   C     79.25000000    61.59000000     5.14900000
   C     78.71000000    62.81000000     5.89900000
   O     78.75000000    62.80000000     7.14900000
   O     78.24000000    63.80000000     5.30900000
   H     80.87000000    60.37000000     3.82900000
   H     78.59000000    62.11000000     3.15900000
   H     80.15000000    61.22000000     5.62900000
   H     78.49000000    60.81000000     5.16900000
   N     79.93000000    64.23000000     2.95900000
   C     80.73000000    65.42000000     2.73900000
   C     80.63000000    66.44000000     3.85900000
   O     81.18000000    67.53000000     3.72900000
   C     80.38000000    66.14000000     1.43900000
   C     79.04000000    66.87000000     1.43900000
   C     80.58000000    65.05000000     0.39900000
   C     78.61000000    67.45000000     0.09900000
   H     78.97000000    64.18000000     2.61900000
   H     81.80000000    65.23000000     2.74900000
   H     81.16000000    66.90000000     1.31900000
   H     79.04000000    67.73000000     2.09900000
   H     78.28000000    66.13000000     1.71900000
   H     81.44000000    64.42000000     0.62900000
   H     79.69000000    64.42000000     0.35900000
   H     80.82000000    65.56000000    -0.54100000
   H     78.89000000    66.76000000    -0.69100000
   H     77.52000000    67.55000000     0.08900000
   H     79.02000000    68.43000000    -0.13100000
   N     79.89000000    66.10000000     4.91900000
   C     79.54000000    67.19000000     5.80900000
   C     79.39000000    66.80000000     7.27900000
   O     79.55000000    67.68000000     8.11900000
   C     78.22000000    67.75000000     5.27900000
   C     77.03000000    66.81000000     5.13900000
   O     76.55000000    66.24000000     6.13900000
   O     76.60000000    66.41000000     4.02900000
   H     79.34000000    65.26000000     5.04900000
   H     80.28000000    67.98000000     5.76900000
   H     78.51000000    68.15000000     4.30900000
   H     77.91000000    68.58000000     5.90900000
   N     79.30000000    65.54000000     7.70900000
   C     79.47000000    65.09000000     9.07900000
   C     78.18000000    64.86000000     9.84900000
   O     78.16000000    65.11000000    11.04900000
   H     79.40000000    64.79000000     7.03900000
   H     80.13000000    65.75000000     9.63900000
   H     79.95000000    64.11000000     9.04900000
   N     77.19000000    64.26000000     9.17900000
   C     75.93000000    63.84000000     9.74900000
   C     75.85000000    62.32000000     9.66900000
   O     74.87000000    61.73000000    10.12900000
   C     74.75000000    64.51000000     9.03900000
   C     74.41000000    64.15000000     7.59900000
   O     73.48000000    64.73000000     7.00900000
   O     75.09000000    63.34000000     6.93900000
   H     77.41000000    64.09000000     8.20900000
   H     75.92000000    64.18000000    10.78900000
   H     74.92000000    65.58000000     9.02900000
   H     73.84000000    64.24000000     9.56900000
   N     76.73000000    61.63000000     8.94900000
   C     76.78000000    60.18000000     8.96900000
   C     76.02000000    59.46000000     7.86900000
   O     76.07000000    58.24000000     7.68900000
   H     77.32000000    62.16000000     8.31900000
   H     76.46000000    59.88000000     9.96900000
   H     77.79000000    59.78000000     8.97900000
   N     75.45000000    60.18000000     6.89900000
   C     74.65000000    59.79000000     5.74900000
   C     75.16000000    60.43000000     4.46900000
   O     75.91000000    61.40000000     4.44900000
   C     73.21000000    60.17000000     6.03900000
   C     72.56000000    59.14000000     6.95900000
   C     71.04000000    59.22000000     7.01900000
   N     70.50000000    59.93000000     8.00900000
   O     70.34000000    58.56000000     6.25900000
   H     75.55000000    61.18000000     7.00900000
   H     74.77000000    58.71000000     5.65900000
   H     72.66000000    60.27000000     5.09900000
   H     73.11000000    61.19000000     6.40900000
   H     72.90000000    59.29000000     7.98900000
   H     72.86000000    58.11000000     6.78900000
   H     71.12000000    60.43000000     8.62900000
   H     69.52000000    59.77000000     8.21900000
   N     74.60000000    59.97000000     3.34900000
   C     74.72000000    60.55000000     2.02900000
   C     73.32000000    60.86000000     1.51900000
   O     72.38000000    60.08000000     1.45900000
   C     75.58000000    59.69000000     1.09900000
   C     76.97000000    59.62000000     1.71900000
   C     75.14000000    58.26000000     0.80900000
   H     74.14000000    59.07000000     3.40900000
   H     75.24000000    61.51000000     2.09900000
   H     75.78000000    60.18000000     0.13900000
   H     77.25000000    60.64000000     1.96900000
   H     76.92000000    59.13000000     2.68900000
   H     77.65000000    59.03000000     1.09900000
   H     74.26000000    58.38000000     0.17900000
   H     75.96000000    57.73000000     0.31900000
   H     74.93000000    57.74000000     1.73900000
   N     73.19000000    62.15000000     1.18900000
   C     72.05000000    62.68000000     0.45900000
   C     72.32000000    62.53000000    -1.03100000
   O     73.43000000    62.18000000    -1.41100000
   C     71.88000000    64.11000000     0.94900000
   C     72.46000000    65.18000000     0.02900000
   N     73.63000000    65.73000000     0.32900000
   O     71.87000000    65.56000000    -0.98100000
   H     73.98000000    62.77000000     1.18900000
   H     71.22000000    62.04000000     0.76900000
   H     72.24000000    64.29000000     1.96900000
   H     70.81000000    64.32000000     0.99900000
   H     74.12000000    65.37000000     1.13900000
   H     73.88000000    66.58000000    -0.17100000
   N     71.32000000    62.81000000    -1.87100000
   C     71.32000000    62.60000000    -3.30100000
   C     72.63000000    63.11000000    -3.88100000
   O     73.30000000    62.36000000    -4.59100000
   C     70.11000000    63.15000000    -4.05100000
   C     70.17000000    63.00000000    -5.55100000
   C     69.92000000    61.73000000    -6.08100000
   C     70.79000000    63.97000000    -6.34100000
   C     70.29000000    61.49000000    -7.41100000
   C     71.15000000    63.74000000    -7.67100000
   C     70.91000000    62.46000000    -8.22100000
   O     71.20000000    62.19000000    -9.53100000
   H     70.40000000    62.96000000    -1.47100000
   H     71.28000000    61.52000000    -3.49100000
   H     69.96000000    64.22000000    -3.91100000
   H     69.22000000    62.61000000    -3.72100000
   H     69.54000000    60.93000000    -5.47100000
   H     70.94000000    64.98000000    -5.99100000
   H     70.12000000    60.55000000    -7.92100000
   H     71.65000000    64.46000000    -8.31100000
   H     71.51000000    62.99000000    -9.96100000
   N     73.08000000    64.35000000    -3.69100000
   C     74.22000000    64.95000000    -4.34100000
   C     75.54000000    64.39000000    -3.83100000
   O     76.60000000    64.43000000    -4.45100000
   C     74.15000000    66.46000000    -4.12100000
   C     75.32000000    67.28000000    -4.67100000
   C     74.99000000    68.73000000    -4.96100000
   O     74.13000000    68.94000000    -5.84100000
   O     75.55000000    69.68000000    -4.36100000
   H     72.50000000    64.92000000    -3.09100000
   H     74.11000000    64.74000000    -5.40100000
   H     74.07000000    66.71000000    -3.06100000
   H     73.30000000    66.94000000    -4.61100000
   H     75.48000000    66.83000000    -5.65100000
   H     76.20000000    67.23000000    -4.03100000
   N     75.52000000    63.79000000    -2.64100000
   C     76.66000000    63.15000000    -2.01100000
   C     76.70000000    61.75000000    -2.58100000
   O     77.74000000    61.11000000    -2.73100000
   C     76.54000000    63.05000000    -0.49100000
   C     76.53000000    64.40000000     0.21900000
   C     76.22000000    64.24000000     1.69900000
   O     75.04000000    64.19000000     2.07900000
   O     77.17000000    63.92000000     2.44900000
   H     74.59000000    63.63000000    -2.27100000
   H     77.56000000    63.67000000    -2.32100000
   H     77.41000000    62.48000000    -0.13100000
   H     75.67000000    62.44000000    -0.25100000
   H     76.07000000    65.20000000    -0.36100000
   H     77.56000000    64.73000000     0.04900000
   N     75.58000000    61.19000000    -3.07100000
   C     75.45000000    59.82000000    -3.53100000
   H     74.62900000    59.75300000    -4.24500000
   H     76.37600000    59.50900000    -4.01400000
   H     75.24600000    59.16900000    -2.68100000
   H     74.75000000    61.69000000    -2.80100000
  Ca     75.71000000    64.05000000     4.64000000
   O     73.65000000    66.00000000     4.75000000
   H     73.28000000    65.78000000     5.60000000
   H     74.03000000    66.87000000     4.86000000
   O     73.12000000    62.93000000     4.37000000
   H     72.58000000    62.16000000     4.55000000
   H     72.52000000    63.67000000     4.48000000

Ca 1.00



