%chk=loop3.apoCaM-CA-Ng.Init31.run84.water5.chk
%nprocshared=20
%mem=10GB
%nosave
#b3lyp/svp scf=(tight,noincore,xqc) Test 
#IOP(5/87=12) Density=Current Pop=(MK,readradii) iop(6/33=2) iop(6/42=6)

loop3.apoCaM-CA-Ng.Init31.run84.water5 

   0  1 
   C     82.89000000    73.68000000    19.80000000
   C     83.86000000    72.51000000    19.73000000
   O     83.68000000    71.49000000    20.40000000
   H     81.97000000    73.36000000    20.28900000
   H     83.34000000    74.49200000    20.37000000
   H     82.66300000    74.02500000    18.79100000
   N     84.92000000    72.53000000    18.92000000
   C     85.83000000    71.41000000    18.82000000
   C     86.69000000    71.21000000    20.07000000
   O     86.79000000    72.10000000    20.90000000
   C     86.69000000    71.59000000    17.58000000
   C     87.55000000    72.84000000    17.72000000
   O     88.68000000    72.71000000    18.24000000
   O     87.19000000    73.91000000    17.20000000
   H     85.21000000    73.35000000    18.41000000
   H     85.27000000    70.50000000    18.63000000
   H     85.97000000    71.78000000    16.78000000
   H     87.36000000    70.77000000    17.31000000
   N     87.47000000    70.13000000    20.14000000
   C     88.39000000    69.81000000    21.21000000
   C     87.70000000    69.33000000    22.48000000
   O     88.07000000    69.68000000    23.60000000
   C     89.48000000    68.92000000    20.62000000
   C     90.52000000    68.54000000    21.66000000
   C     91.65000000    67.66000000    21.12000000
   C     92.65000000    67.45000000    22.26000000
   N     93.86000000    66.70000000    21.92000000
   H     87.52000000    69.47000000    19.38000000
   H     88.86000000    70.76000000    21.47000000
   H     90.03000000    69.43000000    19.82000000
   H     89.01000000    68.02000000    20.23000000
   H     90.14000000    68.08000000    22.57000000
   H     91.03000000    69.49000000    21.87000000
   H     92.17000000    68.18000000    20.32000000
   H     91.30000000    66.72000000    20.72000000
   H     92.17000000    66.96000000    23.11000000
   H     92.91000000    68.46000000    22.58000000
   H     93.73000000    66.10000000    21.12000000
   H     94.56000000    67.33000000    21.54000000
   H     94.30000000    66.15000000    22.65000000
   N     86.67000000    68.51000000    22.31000000
   C     85.91000000    67.94000000    23.41000000
   C     86.50000000    66.59000000    23.80000000
   O     85.84000000    65.56000000    23.72000000
   C     84.42000000    67.95000000    23.08000000
   C     83.98000000    67.35000000    21.75000000
   O     82.84000000    67.58000000    21.31000000
   O     84.64000000    66.45000000    21.19000000
   H     86.43000000    68.13000000    21.40000000
   H     86.08000000    68.63000000    24.23000000
   H     84.00000000    68.95000000    23.24000000
   H     83.89000000    67.48000000    23.90000000
   N     87.71000000    66.62000000    24.37000000
   C     88.57000000    65.57000000    24.88000000
   C     89.50000000    65.08000000    23.78000000
   O     89.55000000    65.64000000    22.69000000
   H     88.16000000    67.51000000    24.20000000
   H     87.99000000    64.68000000    25.15000000
   H     89.15000000    65.87000000    25.74000000
   N     90.38000000    64.10000000    24.01000000
   C     90.59000000    63.29000000    25.19000000
   C     89.36000000    62.43000000    25.49000000
   O     88.50000000    62.21000000    24.64000000
   C     91.81000000    62.42000000    24.89000000
   C     93.14000000    63.15000000    24.92000000
   N     93.78000000    63.40000000    23.77000000
   O     93.60000000    63.53000000    25.99000000
   H     90.99000000    63.93000000    23.22000000
   H     90.82000000    63.95000000    26.02000000
   H     91.67000000    61.84000000    23.98000000
   H     91.84000000    61.56000000    25.56000000
   H     93.43000000    62.96000000    22.93000000
   H     94.51000000    64.08000000    23.91000000
   N     89.25000000    61.89000000    26.71000000
   C     90.00000000    62.10000000    27.93000000
   C     89.63000000    63.46000000    28.48000000
   O     89.58000000    64.43000000    27.73000000
   H     88.41000000    61.35000000    26.85000000
   H     91.08000000    62.10000000    27.76000000
   H     89.79000000    61.30000000    28.64000000
   N     89.10000000    63.54000000    29.70000000
   C     88.08000000    64.47000000    30.14000000
   C     88.55000000    64.88000000    31.52000000
   O     88.02000000    64.28000000    32.45000000
   C     86.69000000    63.82000000    30.12000000
   C     86.24000000    63.18000000    28.83000000
   C     86.07000000    63.97000000    27.69000000
   C     86.11000000    61.79000000    28.72000000
   C     85.69000000    63.39000000    26.47000000
   C     85.94000000    61.17000000    27.48000000
   C     85.70000000    61.99000000    26.36000000
   O     85.56000000    61.43000000    25.12000000
   H     89.39000000    62.78000000    30.29000000
   H     88.12000000    65.35000000    29.50000000
   H     85.91000000    64.52000000    30.43000000
   H     86.74000000    63.01000000    30.84000000
   H     86.13000000    65.05000000    27.75000000
   H     86.17000000    61.20000000    29.62000000
   H     85.44000000    64.09000000    25.69000000
   H     85.70000000    60.11000000    27.46000000
   H     85.52000000    60.47000000    25.19000000
   N     89.26000000    66.00000000    31.67000000
   C     89.88000000    66.45000000    32.91000000
   C     89.61000000    67.90000000    33.28000000
   O     89.80000000    68.17000000    34.46000000
   C     91.37000000    66.16000000    32.94000000
   C     91.64000000    64.68000000    33.24000000
   C     92.06000000    66.58000000    31.64000000
   C     93.09000000    64.24000000    33.44000000
   H     89.40000000    66.55000000    30.84000000
   H     89.42000000    65.92000000    33.74000000
   H     91.85000000    66.61000000    33.81000000
   H     91.38000000    64.14000000    32.33000000
   H     91.07000000    64.34000000    34.10000000
   H     91.79000000    65.83000000    30.90000000
   H     91.99000000    67.65000000    31.48000000
   H     93.11000000    66.30000000    31.74000000
   H     93.44000000    64.63000000    34.40000000
   H     93.18000000    63.16000000    33.57000000
   H     93.66000000    64.53000000    32.55000000
   N     89.14000000    68.78000000    32.39000000
   C     89.15000000    70.21000000    32.64000000
   C     89.75000000    71.09000000    31.56000000
   O     89.92000000    72.29000000    31.76000000
   C     87.74000000    70.65000000    33.03000000
   O     86.92000000    70.85000000    31.89000000
   H     88.89000000    68.47000000    31.46000000
   H     89.80000000    70.46000000    33.48000000
   H     87.81000000    71.53000000    33.66000000
   H     87.32000000    69.82000000    33.60000000
   H     87.12000000    70.07000000    31.38000000
   N     90.15000000    70.50000000    30.43000000
   C     90.57000000    71.11000000    29.18000000
   C     89.39000000    71.66000000    28.39000000
   O     89.41000000    71.51000000    27.17000000
   C     91.48000000    70.16000000    28.40000000
   H     90.02000000    69.50000000    30.38000000
   H     91.21000000    71.96000000    29.38000000
   H     92.01000000    70.67000000    27.60000000
   H     92.27000000    69.85000000    29.08000000
   H     90.87000000    69.40000000    27.90000000
   N     88.38000000    72.12000000    29.12000000
   C     87.16000000    72.75000000    28.65000000
   C     86.23000000    71.95000000    27.76000000
   O     85.39000000    72.49000000    27.05000000
   C     87.45000000    74.17000000    28.16000000
   H     88.73000000    72.19000000    30.07000000
   H     86.57000000    72.90000000    29.56000000
   H     86.52000000    74.71000000    27.96000000
   H     88.03000000    74.78000000    28.85000000
   H     87.95000000    74.18000000    27.20000000
   N     86.47000000    70.64000000    27.85000000
   C     85.64000000    69.61000000    27.25000000
   C     84.45000000    69.14000000    28.09000000
   O     83.33000000    69.12000000    27.59000000
   C     86.62000000    68.47000000    26.99000000
   C     87.12000000    67.62000000    28.15000000
   C     87.86000000    68.33000000    29.28000000
   O     87.31000000    69.15000000    30.05000000
   O     89.01000000    67.89000000    29.51000000
   H     87.11000000    70.34000000    28.57000000
   H     85.29000000    70.04000000    26.32000000
   H     87.42000000    68.80000000    26.33000000
   H     86.00000000    67.73000000    26.49000000
   H     87.65000000    66.77000000    27.72000000
   H     86.28000000    67.10000000    28.61000000
   N     84.64000000    69.03000000    29.40000000
   C     83.53000000    68.93000000    30.33000000
   H     82.64900000    68.56200000    29.80500000
   H     83.78900000    68.23900000    31.13300000
   H     83.31800000    69.91300000    30.75000000
   H     85.57000000    69.10000000    29.77000000
  Ca     82.27000000    65.38000000    20.06000000
   O     80.32000000    65.95000000    21.78000000
   H     79.84000000    66.77000000    21.64000000
   H     79.86000000    65.53000000    22.51000000
   O     84.12000000    66.32000000    18.06000000
   H     84.18000000    66.36000000    17.11000000
   H     85.00000000    66.10000000    18.35000000
   O     83.87000000    63.53000000    18.78000000
   H     84.79000000    63.65000000    18.55000000
   H     83.61000000    62.75000000    18.30000000
   O     81.17000000    62.81000000    20.15000000
   H     81.36000000    62.25000000    19.39000000
   H     80.47000000    62.36000000    20.62000000
   O     83.17000000    64.23000000    22.31000000
   H     83.69000000    64.77000000    22.91000000
   H     83.57000000    63.36000000    22.37000000

Ca 1.00



