%chk=loop4.apoCaM-CA-Ng.Init293.run23.water3.chk
%nprocshared=20
%mem=10GB
%nosave
#b3lyp/svp scf=(tight,noincore,xqc) Test 
#IOP(5/87=12) Density=Current Pop=(MK,readradii) iop(6/33=2) iop(6/42=6)

loop4.apoCaM-CA-Ng.Init293.run23.water3 

   -3  1 
   C     50.52000000   116.14000000    33.48000000
   C     51.47000000   117.25000000    33.04000000
   O     52.65000000   116.97000000    32.91000000
   H     49.58300000   116.22400000    32.92900000
   H     50.97400000   115.17000000    33.27700000
   H     50.32200000   116.23200000    34.54800000
   N     51.03000000   118.51000000    32.89000000
   C     51.67000000   119.74000000    32.48000000
   C     52.54000000   119.61000000    31.24000000
   O     53.74000000   119.86000000    31.28000000
   C     52.39000000   120.47000000    33.60000000
   C     53.29000000   119.66000000    34.52000000
   O     52.76000000   119.16000000    35.54000000
   O     54.51000000   119.53000000    34.28000000
   H     50.05000000   118.61000000    33.14000000
   H     50.82000000   120.35000000    32.16000000
   H     51.58000000   120.94000000    34.16000000
   H     52.79000000   121.37000000    33.12000000
   N     51.87000000   119.28000000    30.13000000
   C     52.40000000   119.42000000    28.79000000
   C     53.02000000   120.76000000    28.43000000
   O     53.81000000   120.88000000    27.49000000
   C     53.20000000   118.16000000    28.46000000
   C     52.93000000   117.63000000    27.05000000
   C     53.04000000   116.93000000    29.35000000
   C     54.12000000   116.98000000    26.35000000
   H     50.92000000   118.95000000    30.14000000
   H     51.53000000   119.42000000    28.14000000
   H     54.25000000   118.43000000    28.54000000
   H     52.69000000   118.50000000    26.45000000
   H     52.10000000   116.93000000    27.11000000
   H     53.30000000   117.21000000    30.37000000
   H     52.04000000   116.50000000    29.40000000
   H     53.60000000   116.06000000    29.01000000
   H     53.83000000   116.59000000    25.37000000
   H     54.86000000   117.77000000    26.26000000
   H     54.49000000   116.09000000    26.85000000
   N     52.68000000   121.79000000    29.21000000
   C     53.29000000   123.10000000    29.13000000
   C     54.63000000   123.35000000    29.81000000
   O     54.85000000   122.85000000    30.91000000
   C     52.27000000   124.19000000    29.46000000
   C     51.81000000   124.18000000    30.91000000
   O     51.36000000   123.11000000    31.37000000
   O     51.96000000   125.23000000    31.57000000
   H     52.06000000   121.70000000    30.00000000
   H     53.50000000   123.23000000    28.07000000
   H     51.39000000   124.05000000    28.83000000
   H     52.62000000   125.21000000    29.26000000
   N     55.50000000   124.26000000    29.36000000
   C     55.45000000   124.94000000    28.08000000
   C     56.82000000   125.43000000    27.63000000
   O     57.83000000   125.06000000    28.22000000
   H     56.38000000   124.36000000    29.84000000
   H     54.79000000   125.79000000    28.22000000
   H     55.10000000   124.30000000    27.27000000
   N     56.92000000   126.12000000    26.49000000
   C     55.76000000   126.79000000    25.93000000
   C     54.71000000   125.93000000    25.25000000
   O     53.56000000   126.18000000    25.61000000
   C     56.16000000   127.90000000    24.97000000
   C     57.28000000   128.76000000    25.54000000
   O     57.00000000   129.96000000    25.77000000
   O     58.47000000   128.38000000    25.47000000
   H     57.81000000   126.54000000    26.29000000
   H     55.18000000   127.33000000    26.68000000
   H     55.31000000   128.57000000    24.86000000
   H     56.47000000   127.37000000    24.06000000
   N     54.95000000   124.94000000    24.38000000
   C     56.22000000   124.54000000    23.80000000
   C     56.07000000   123.58000000    22.63000000
   O     54.93000000   123.27000000    22.30000000
   H     54.16000000   124.32000000    24.28000000
   H     56.82000000   124.05000000    24.56000000
   H     56.74000000   125.38000000    23.34000000
   N     57.18000000   123.08000000    22.09000000
   C     57.15000000   122.21000000    20.93000000
   C     56.89000000   120.74000000    21.22000000
   O     56.98000000   119.89000000    20.35000000
   C     58.33000000   122.51000000    20.01000000
   C     58.38000000   123.85000000    19.29000000
   C     58.70000000   124.92000000    20.33000000
   N     57.82000000   125.90000000    20.52000000
   O     59.71000000   124.78000000    21.01000000
   H     58.06000000   123.44000000    22.42000000
   H     56.28000000   122.53000000    20.35000000
   H     58.36000000   121.70000000    19.28000000
   H     59.26000000   122.40000000    20.58000000
   H     57.46000000   124.06000000    18.74000000
   H     59.19000000   123.76000000    18.57000000
   H     56.95000000   125.83000000    20.01000000
   H     57.94000000   126.66000000    21.18000000
   N     56.75000000   120.36000000    22.49000000
   C     56.55000000   119.00000000    22.94000000
   C     57.47000000   118.69000000    24.11000000
   O     57.61000000   119.51000000    25.01000000
   C     55.06000000   118.83000000    23.20000000
   C     54.38000000   118.69000000    21.84000000
   C     54.36000000   119.91000000    24.03000000
   H     56.82000000   121.07000000    23.21000000
   H     56.79000000   118.25000000    22.18000000
   H     54.78000000   117.91000000    23.72000000
   H     54.92000000   117.89000000    21.34000000
   H     53.38000000   118.30000000    22.00000000
   H     54.51000000   119.62000000    21.29000000
   H     54.85000000   120.07000000    24.98000000
   H     54.32000000   120.80000000    23.39000000
   H     53.31000000   119.70000000    24.22000000
   N     58.05000000   117.49000000    24.18000000
   C     58.82000000   117.00000000    25.30000000
   C     60.17000000   117.71000000    25.34000000
   O     61.00000000   117.48000000    24.47000000
   C     58.89000000   115.48000000    25.18000000
   C     57.54000000   114.78000000    25.18000000
   N     57.12000000   114.20000000    24.05000000
   O     56.91000000   114.62000000    26.23000000
   H     58.04000000   116.86000000    23.39000000
   H     58.28000000   117.15000000    26.24000000
   H     59.42000000   115.17000000    26.08000000
   H     59.42000000   115.11000000    24.30000000
   H     57.72000000   114.19000000    23.24000000
   H     56.33000000   113.58000000    24.10000000
   N     60.36000000   118.69000000    26.23000000
   C     61.68000000   119.15000000    26.63000000
   C     61.79000000   119.17000000    28.14000000
   O     61.13000000   119.96000000    28.82000000
   C     61.93000000   120.52000000    26.01000000
   C     63.32000000   121.10000000    26.13000000
   C     64.21000000   121.14000000    25.05000000
   C     63.75000000   121.60000000    27.37000000
   C     65.51000000   121.66000000    25.12000000
   C     65.08000000   122.01000000    27.52000000
   C     65.95000000   122.03000000    26.41000000
   O     67.27000000   122.32000000    26.61000000
   H     59.55000000   119.05000000    26.71000000
   H     62.43000000   118.50000000    26.19000000
   H     61.26000000   121.21000000    26.53000000
   H     61.65000000   120.61000000    24.97000000
   H     63.95000000   120.74000000    24.09000000
   H     63.07000000   121.57000000    28.21000000
   H     66.19000000   121.63000000    24.28000000
   H     65.49000000   122.18000000    28.50000000
   H     67.56000000   122.32000000    27.52000000
   N     62.59000000   118.27000000    28.71000000
   C     62.50000000   117.75000000    30.06000000
   C     61.19000000   117.06000000    30.44000000
   O     61.20000000   116.45000000    31.51000000
   C     62.82000000   118.79000000    31.13000000
   C     64.06000000   119.62000000    30.82000000
   C     65.29000000   118.73000000    31.01000000
   O     65.68000000   118.40000000    32.14000000
   O     65.94000000   118.42000000    29.99000000
   H     63.22000000   117.75000000    28.12000000
   H     63.27000000   117.03000000    30.34000000
   H     63.06000000   118.36000000    32.10000000
   H     61.95000000   119.43000000    31.24000000
   H     64.15000000   120.44000000    31.54000000
   H     64.00000000   120.09000000    29.84000000
   N     60.09000000   117.19000000    29.70000000
   C     58.86000000   116.46000000    29.98000000
   C     59.05000000   114.95000000    30.00000000
   O     58.25000000   114.26000000    30.64000000
   C     57.75000000   116.83000000    29.01000000
   C     57.39000000   118.31000000    28.86000000
   C     56.88000000   119.08000000    30.07000000
   O     56.63000000   120.30000000    29.96000000
   O     56.81000000   118.54000000    31.20000000
   H     60.04000000   117.87000000    28.96000000
   H     58.54000000   116.77000000    30.97000000
   H     56.82000000   116.35000000    29.30000000
   H     57.87000000   116.37000000    28.03000000
   H     56.64000000   118.31000000    28.07000000
   H     58.28000000   118.84000000    28.52000000
   N     59.97000000   114.43000000    29.18000000
   C     60.48000000   113.11000000    29.47000000
   H     61.42600000   113.19600000    30.00500000
   H     59.76200000   112.57000000    30.08800000
   H     60.63800000   112.56800000    28.53800000
   H     60.58000000   115.06000000    28.67000000
  Ca     55.90000000   120.63100000    32.42000000
   O     57.65000000   122.57100000    31.77000000
   H     57.40000000   123.47100000    31.99000000
   H     58.04000000   122.63100000    30.90000000
   O     57.89000000   119.86100000    33.80000000
   H     58.23000000   118.99100000    33.58000000
   H     58.42000000   120.14100000    34.55000000
   O     55.43000000   122.70100000    33.99000000
   H     54.64000000   123.22100000    33.89000000
   H     56.03000000   123.26100000    34.49000000

Ca 1.00



