%chk=loop1.holoCaM-CaMKII.run87.water2.chk
%nprocshared=20
%mem=10GB
%nosave
#b3lyp/svp scf=(tight,noincore,xqc) Test 
#IOP(5/87=12) Density=Current Pop=(MK,readradii) iop(6/33=2) iop(6/42=6)

loop1.holoCaM-CaMKII.run87.water2 

   0  1 
   C     50.61000000    32.15000000   -16.19000000
   C     51.27000000    31.53000000   -17.41000000
   O     50.67000000    31.38000000   -18.47000000
   H     49.60200000    31.75000000   -16.08000000
   H     51.19300000    31.91300000   -15.30000000
   H     50.55900000    33.23200000   -16.31400000
   N     52.58000000    31.27000000   -17.32000000
   C     53.30000000    30.63000000   -18.41000000
   C     53.04000000    29.14000000   -18.63000000
   O     53.89000000    28.28000000   -18.41000000
   C     54.73000000    31.16000000   -18.43000000
   C     55.48000000    30.73000000   -19.68000000
   O     56.69000000    30.41000000   -19.63000000
   O     54.87000000    30.77000000   -20.77000000
   H     53.05000000    31.28000000   -16.43000000
   H     52.87000000    31.07000000   -19.30000000
   H     55.28000000    30.84000000   -17.54000000
   H     54.72000000    32.25000000   -18.34000000
   N     51.84000000    28.79000000   -19.11000000
   C     51.36000000    27.43000000   -19.12000000
   C     52.08000000    26.52000000   -20.11000000
   O     52.26000000    25.33000000   -19.84000000
   C     49.88000000    27.47000000   -19.50000000
   C     48.92000000    28.08000000   -18.48000000
   C     48.73000000    27.13000000   -17.31000000
   C     47.41000000    27.52000000   -16.65000000
   N     47.44000000    28.86000000   -16.03000000
   H     51.20000000    29.55000000   -19.27000000
   H     51.49000000    26.93000000   -18.16000000
   H     49.52000000    26.51000000   -19.87000000
   H     49.99000000    28.10000000   -20.38000000
   H     47.95000000    28.37000000   -18.88000000
   H     49.37000000    29.00000000   -18.08000000
   H     49.61000000    26.98000000   -16.67000000
   H     48.60000000    26.15000000   -17.76000000
   H     47.16000000    26.79000000   -15.88000000
   H     46.67000000    27.40000000   -17.44000000
   H     48.16000000    28.93000000   -15.34000000
   H     47.48000000    29.55000000   -16.77000000
   H     46.57000000    29.03000000   -15.55000000
   N     52.49000000    27.05000000   -21.27000000
   C     53.24000000    26.36000000   -22.30000000
   C     54.74000000    26.53000000   -22.06000000
   O     55.42000000    25.69000000   -22.65000000
   C     52.86000000    26.79000000   -23.71000000
   C     52.96000000    28.29000000   -23.98000000
   O     52.43000000    28.79000000   -25.00000000
   O     53.55000000    29.11000000   -23.25000000
   H     52.33000000    28.03000000   -21.45000000
   H     52.92000000    25.32000000   -22.20000000
   H     51.84000000    26.54000000   -23.98000000
   H     53.54000000    26.31000000   -24.42000000
   N     55.20000000    27.40000000   -21.16000000
   C     56.58000000    27.32000000   -20.72000000
   C     57.60000000    27.98000000   -21.64000000
   O     58.77000000    27.59000000   -21.63000000
   H     54.52000000    27.95000000   -20.66000000
   H     56.96000000    26.31000000   -20.55000000
   H     56.61000000    27.88000000   -19.78000000
   N     57.27000000    28.98000000   -22.46000000
   C     58.17000000    29.59000000   -23.42000000
   C     58.84000000    30.81000000   -22.78000000
   O     59.62000000    31.51000000   -23.41000000
   C     57.40000000    29.94000000   -24.68000000
   C     56.33000000    31.01000000   -24.56000000
   O     55.54000000    31.10000000   -25.53000000
   O     56.15000000    31.77000000   -23.58000000
   H     56.42000000    29.41000000   -22.14000000
   H     58.94000000    28.88000000   -23.72000000
   H     56.99000000    29.03000000   -25.13000000
   H     58.00000000    30.18000000   -25.56000000
   N     58.66000000    31.03000000   -21.47000000
   C     59.21000000    32.18000000   -20.79000000
   C     58.66000000    33.56000000   -21.14000000
   O     59.24000000    34.57000000   -20.75000000
   H     58.10000000    30.44000000   -20.87000000
   H     60.27000000    32.21000000   -21.05000000
   H     59.16000000    32.09000000   -19.71000000
   N     57.48000000    33.70000000   -21.75000000
   C     56.88000000    34.99000000   -22.06000000
   C     55.36000000    34.86000000   -21.95000000
   O     54.74000000    33.81000000   -22.10000000
   C     57.29000000    35.42000000   -23.46000000
   C     58.63000000    36.14000000   -23.51000000
   O     57.28000000    34.38000000   -24.41000000
   H     56.99000000    32.86000000   -22.03000000
   H     57.14000000    35.72000000   -21.29000000
   H     56.50000000    36.14000000   -23.69000000
   H     56.80000000    33.65000000   -24.01000000
   H     58.70000000    36.44000000   -24.55000000
   H     58.60000000    36.98000000   -22.81000000
   H     59.42000000    35.44000000   -23.25000000
   N     54.73000000    35.99000000   -21.64000000
   C     53.31000000    36.02000000   -21.31000000
   C     52.50000000    36.72000000   -22.38000000
   O     52.80000000    37.85000000   -22.77000000
   C     53.04000000    36.55000000   -19.91000000
   C     53.69000000    35.76000000   -18.78000000
   C     51.56000000    36.80000000   -19.62000000
   C     53.69000000    36.43000000   -17.41000000
   H     55.29000000    36.83000000   -21.62000000
   H     53.03000000    34.97000000   -21.26000000
   H     53.59000000    37.49000000   -19.85000000
   H     54.74000000    35.52000000   -18.93000000
   H     53.19000000    34.81000000   -18.60000000
   H     50.94000000    35.91000000   -19.57000000
   H     51.46000000    37.40000000   -18.72000000
   H     51.17000000    37.45000000   -20.41000000
   H     52.66000000    36.59000000   -17.07000000
   H     54.25000000    35.81000000   -16.71000000
   H     54.22000000    37.38000000   -17.49000000
   N     51.41000000    36.09000000   -22.82000000
   C     50.43000000    36.65000000   -23.73000000
   C     49.14000000    37.01000000   -23.01000000
   O     48.83000000    36.59000000   -21.90000000
   C     50.10000000    35.61000000   -24.80000000
   C     51.32000000    35.48000000   -25.71000000
   O     49.82000000    34.35000000   -24.23000000
   H     51.18000000    35.17000000   -22.48000000
   H     50.86000000    37.48000000   -24.30000000
   H     49.24000000    35.93000000   -25.39000000
   H     50.66000000    33.95000000   -23.97000000
   H     51.64000000    36.49000000   -25.94000000
   H     52.19000000    34.99000000   -25.27000000
   H     51.08000000    34.89000000   -26.60000000
   N     48.28000000    37.79000000   -23.66000000
   C     46.92000000    38.09000000   -23.26000000
   C     45.94000000    36.96000000   -23.02000000
   O     45.10000000    37.05000000   -22.12000000
   C     46.36000000    39.08000000   -24.27000000
   C     47.12000000    40.40000000   -24.13000000
   O     46.54000000    38.62000000   -25.59000000
   H     48.50000000    38.16000000   -24.58000000
   H     46.97000000    38.68000000   -22.34000000
   H     45.31000000    39.31000000   -24.07000000
   H     46.09000000    39.25000000   -26.16000000
   H     48.19000000    40.25000000   -24.29000000
   H     46.72000000    41.19000000   -24.76000000
   H     46.99000000    40.67000000   -23.08000000
   N     46.14000000    35.83000000   -23.70000000
   C     45.47000000    34.59000000   -23.35000000
   C     45.82000000    34.09000000   -21.96000000
   O     44.99000000    33.57000000   -21.23000000
   C     45.96000000    33.51000000   -24.30000000
   C     45.17000000    32.21000000   -24.19000000
   C     45.59000000    31.26000000   -25.31000000
   C     44.95000000    29.88000000   -25.35000000
   N     45.37000000    29.05000000   -26.49000000
   H     46.89000000    35.80000000   -24.38000000
   H     44.39000000    34.78000000   -23.42000000
   H     46.98000000    33.19000000   -24.08000000
   H     45.99000000    33.91000000   -25.31000000
   H     44.11000000    32.47000000   -24.18000000
   H     45.43000000    31.75000000   -23.24000000
   H     46.63000000    31.08000000   -25.04000000
   H     45.49000000    31.67000000   -26.32000000
   H     43.90000000    30.17000000   -25.33000000
   H     45.23000000    29.39000000   -24.41000000
   H     46.35000000    28.78000000   -26.50000000
   H     44.82000000    28.21000000   -26.58000000
   H     45.33000000    29.52000000   -27.38000000
   N     47.05000000    34.31000000   -21.49000000
   C     47.68000000    33.65000000   -20.36000000
   C     47.25000000    34.36000000   -19.08000000
   O     46.63000000    33.75000000   -18.22000000
   C     49.19000000    33.51000000   -20.46000000
   C     49.50000000    32.30000000   -21.33000000
   C     51.00000000    32.23000000   -21.57000000
   O     51.56000000    31.11000000   -21.51000000
   O     51.63000000    33.14000000   -22.15000000
   H     47.60000000    35.04000000   -21.92000000
   H     47.26000000    32.65000000   -20.24000000
   H     49.63000000    33.31000000   -19.49000000
   H     49.65000000    34.44000000   -20.80000000
   H     48.92000000    32.39000000   -22.25000000
   H     49.23000000    31.41000000   -20.76000000
   N     47.29000000    35.69000000   -19.14000000
   C     46.63000000    36.60000000   -18.22000000
   H     45.63400000    36.22300000   -17.98900000
   H     47.21200000    36.67400000   -17.30100000
   H     46.54800000    37.58500000   -18.67900000
   H     47.81000000    36.04000000   -19.93000000
  Ca     53.63000000    31.70000000   -22.88300000
   O     54.16000000    33.30000000   -25.24300000
   H     54.37000000    33.86000000   -25.99300000
   H     54.62000000    32.47000000   -25.43300000
   O     52.06000000    31.40000000   -25.00300000
   H     52.02000000    30.48000000   -25.28300000
   H     52.05000000    31.90000000   -25.82300000

Ca 1.00



