%chk=loop4.holoCaM.run87.water2.chk
%nprocshared=20
%mem=10GB
%nosave
#b3lyp/svp scf=(tight,noincore,xqc) Test 
#IOP(5/87=12) Density=Current Pop=(MK,readradii) iop(6/33=2) iop(6/42=6)

loop4.holoCaM.run87.water2 

   -3  1 
   C     47.65000000    52.39000000    22.62000000
   C     49.10000000    52.56000000    23.05000000
   O     49.66000000    53.58000000    22.66000000
   H     47.06000000    53.22700000    22.99400000
   H     47.59400000    52.36400000    21.53200000
   H     47.25700000    51.45900000    23.02700000
   N     49.76000000    51.62000000    23.73000000
   C     51.14000000    51.72000000    24.17000000
   C     52.07000000    51.86000000    22.98000000
   O     52.12000000    50.99000000    22.12000000
   C     51.39000000    50.47000000    25.01000000
   C     52.84000000    50.03000000    25.18000000
   O     53.13000000    48.81000000    25.19000000
   O     53.75000000    50.88000000    25.18000000
   H     49.29000000    50.79000000    24.05000000
   H     51.10000000    52.59000000    24.83000000
   H     50.92000000    49.56000000    24.65000000
   H     51.02000000    50.53000000    26.04000000
   N     52.85000000    52.95000000    22.92000000
   C     53.52000000    53.50000000    21.76000000
   C     54.97000000    53.06000000    21.57000000
   O     55.54000000    53.19000000    20.50000000
   C     53.33000000    55.01000000    21.73000000
   C     53.25000000    55.40000000    20.26000000
   C     54.44000000    55.82000000    22.40000000
   C     52.68000000    56.80000000    20.04000000
   H     52.60000000    53.65000000    23.60000000
   H     53.08000000    53.05000000    20.87000000
   H     52.40000000    55.25000000    22.24000000
   H     52.61000000    54.78000000    19.64000000
   H     54.24000000    55.37000000    19.79000000
   H     54.10000000    56.84000000    22.56000000
   H     54.58000000    55.41000000    23.40000000
   H     55.43000000    55.81000000    21.93000000
   H     53.35000000    57.53000000    20.50000000
   H     52.72000000    57.08000000    18.99000000
   H     51.62000000    56.97000000    20.20000000
   N     55.61000000    52.60000000    22.65000000
   C     56.99000000    52.15000000    22.71000000
   C     57.00000000    50.70000000    23.15000000
   O     58.10000000    50.13000000    23.12000000
   C     57.79000000    53.07000000    23.62000000
   C     57.16000000    53.25000000    25.00000000
   O     56.10000000    52.72000000    25.40000000
   O     57.76000000    54.10000000    25.69000000
   H     55.28000000    52.69000000    23.60000000
   H     57.44000000    52.22000000    21.72000000
   H     57.84000000    54.05000000    23.15000000
   H     58.81000000    52.73000000    23.79000000
   N     55.92000000    49.96000000    23.37000000
   C     55.87000000    48.52000000    23.50000000
   C     56.53000000    47.90000000    24.73000000
   O     57.59000000    47.27000000    24.64000000
   H     55.07000000    50.47000000    23.59000000
   H     56.42000000    48.15000000    22.64000000
   H     54.81000000    48.28000000    23.43000000
   N     55.87000000    48.05000000    25.88000000
   C     56.30000000    47.49000000    27.14000000
   C     55.09000000    47.03000000    27.94000000
   O     55.23000000    46.55000000    29.06000000
   C     56.95000000    48.64000000    27.92000000
   C     56.15000000    49.93000000    28.02000000
   O     54.90000000    49.94000000    28.10000000
   O     56.74000000    51.04000000    28.05000000
   H     55.02000000    48.56000000    25.70000000
   H     57.12000000    46.78000000    27.02000000
   H     57.91000000    48.84000000    27.45000000
   H     57.17000000    48.26000000    28.92000000
   N     53.87000000    47.09000000    27.39000000
   C     52.60000000    46.64000000    27.93000000
   C     51.76000000    47.57000000    28.79000000
   O     50.66000000    47.20000000    29.20000000
   H     53.79000000    47.52000000    26.49000000
   H     52.82000000    45.89000000    28.70000000
   H     52.02000000    46.18000000    27.13000000
   N     52.16000000    48.81000000    29.10000000
   C     51.40000000    49.78000000    29.85000000
   C     51.26000000    51.12000000    29.15000000
   O     52.00000000    51.41000000    28.21000000
   C     52.06000000    50.02000000    31.21000000
   C     51.76000000    48.85000000    32.15000000
   C     52.56000000    49.15000000    33.42000000
   N     53.77000000    48.59000000    33.48000000
   O     51.97000000    49.82000000    34.26000000
   H     53.10000000    49.02000000    28.79000000
   H     50.36000000    49.45000000    29.96000000
   H     51.78000000    50.97000000    31.65000000
   H     53.13000000    49.97000000    31.02000000
   H     52.19000000    47.95000000    31.71000000
   H     50.69000000    48.72000000    32.32000000
   H     54.10000000    47.97000000    32.75000000
   H     54.39000000    48.89000000    34.22000000
   N     50.28000000    51.92000000    29.57000000
   C     49.98000000    53.27000000    29.12000000
   C     50.37000000    54.28000000    30.20000000
   O     49.92000000    54.20000000    31.34000000
   C     48.56000000    53.35000000    28.59000000
   C     48.42000000    52.66000000    27.24000000
   C     47.51000000    52.96000000    29.63000000
   H     49.78000000    51.70000000    30.42000000
   H     50.66000000    53.47000000    28.30000000
   H     48.40000000    54.40000000    28.34000000
   H     47.79000000    53.32000000    26.64000000
   H     49.38000000    52.50000000    26.75000000
   H     47.85000000    51.73000000    27.15000000
   H     47.80000000    51.98000000    30.03000000
   H     47.47000000    53.66000000    30.47000000
   H     46.53000000    52.87000000    29.16000000
   N     51.24000000    55.25000000    29.92000000
   C     51.46000000    56.44000000    30.71000000
   C     50.45000000    57.48000000    30.24000000
   O     49.78000000    57.26000000    29.23000000
   C     52.93000000    56.82000000    30.68000000
   C     53.38000000    57.54000000    29.41000000
   N     53.92000000    56.90000000    28.38000000
   O     53.14000000    58.74000000    29.25000000
   H     51.77000000    55.15000000    29.06000000
   H     51.17000000    56.17000000    31.73000000
   H     53.52000000    55.90000000    30.70000000
   H     53.16000000    57.58000000    31.42000000
   H     53.91000000    55.90000000    28.34000000
   H     54.24000000    57.46000000    27.59000000
   N     50.32000000    58.57000000    30.99000000
   C     49.40000000    59.67000000    30.72000000
   C     49.39000000    60.28000000    29.33000000
   O     48.48000000    60.97000000    28.89000000
   C     49.40000000    60.71000000    31.84000000
   C     50.73000000    61.07000000    32.44000000
   C     51.62000000    61.92000000    31.76000000
   C     51.21000000    60.36000000    33.54000000
   C     52.91000000    62.18000000    32.22000000
   C     52.50000000    60.61000000    34.03000000
   C     53.38000000    61.46000000    33.34000000
   O     54.64000000    61.61000000    33.85000000
   H     50.97000000    58.70000000    31.75000000
   H     48.43000000    59.20000000    30.83000000
   H     48.78000000    60.40000000    32.68000000
   H     48.90000000    61.65000000    31.59000000
   H     51.33000000    62.17000000    30.75000000
   H     50.65000000    59.56000000    34.00000000
   H     53.65000000    62.79000000    31.72000000
   H     52.84000000    60.01000000    34.86000000
   H     54.89000000    61.13000000    34.64000000
   N     50.44000000    60.03000000    28.53000000
   C     50.53000000    60.52000000    27.17000000
   C     50.16000000    59.53000000    26.08000000
   O     49.75000000    59.95000000    24.99000000
   C     51.92000000    61.10000000    26.91000000
   C     52.20000000    62.48000000    27.50000000
   C     53.60000000    62.87000000    27.07000000
   O     53.69000000    63.83000000    26.28000000
   O     54.57000000    62.26000000    27.58000000
   H     51.07000000    59.36000000    28.95000000
   H     49.90000000    61.41000000    27.10000000
   H     52.02000000    61.18000000    25.83000000
   H     52.56000000    60.25000000    27.17000000
   H     52.24000000    62.50000000    28.59000000
   H     51.43000000    63.20000000    27.23000000
   N     50.22000000    58.23000000    26.37000000
   C     49.78000000    57.11000000    25.56000000
   C     48.29000000    56.85000000    25.67000000
   O     47.70000000    56.46000000    24.66000000
   C     50.50000000    55.86000000    26.06000000
   C     52.00000000    55.92000000    25.77000000
   C     52.72000000    54.69000000    26.31000000
   O     52.91000000    54.50000000    27.53000000
   O     53.04000000    53.74000000    25.56000000
   H     50.61000000    58.03000000    27.28000000
   H     50.00000000    57.28000000    24.50000000
   H     50.11000000    54.96000000    25.59000000
   H     50.36000000    55.89000000    27.14000000
   H     52.42000000    56.83000000    26.20000000
   H     52.18000000    55.87000000    24.70000000
   N     47.69000000    57.17000000    26.82000000
   C     46.31000000    56.96000000    27.19000000
   H     45.68200000    57.02500000    26.30100000
   H     46.20000000    55.97400000    27.64100000
   H     46.00500000    57.72300000    27.90600000
   H     48.29000000    57.48000000    27.57000000
  Ca     54.37000000    52.26000000    27.24000000
   O     56.20000000    54.15000000    27.91000000
   H     56.52000000    54.04000000    27.02000000
   H     56.82000000    54.75000000    28.33000000
   O     54.52000000    52.79000000    29.96000000
   H     55.25000000    53.40000000    29.88000000
   H     54.77000000    52.21000000    30.69000000

Ca 1.00



