%chk=loop3.apoCaM-CA-Ng.Init295.run77.water3.chk
%nprocshared=20
%mem=10GB
%nosave
#b3lyp/svp scf=(tight,noincore,xqc) Test 
#IOP(5/87=12) Density=Current Pop=(MK,readradii) iop(6/33=2) iop(6/42=6)

loop3.apoCaM-CA-Ng.Init295.run77.water3 

   0  1 
   C    -12.44000000   -27.55000000    54.40000000
   C    -12.93000000   -28.78000000    53.65000000
   O    -14.14000000   -28.98000000    53.59000000
   H    -11.52700000   -27.18100000    53.93400000
   H    -13.20500000   -26.77400000    54.36500000
   H    -12.23600000   -27.81400000    55.43800000
   N    -11.94000000   -29.57000000    53.23000000
   C    -12.16000000   -30.94000000    52.83000000
   C    -11.97000000   -31.99000000    53.91000000
   O    -11.19000000   -31.83000000    54.84000000
   C    -11.29000000   -31.14000000    51.59000000
   C    -11.47000000   -32.48000000    50.89000000
   O    -12.02000000   -32.59000000    49.77000000
   O    -10.99000000   -33.50000000    51.43000000
   H    -10.97000000   -29.32000000    53.39000000
   H    -13.20000000   -31.08000000    52.52000000
   H    -10.23000000   -31.05000000    51.82000000
   H    -11.50000000   -30.32000000    50.90000000
   N    -12.64000000   -33.13000000    53.77000000
   C    -12.67000000   -34.07000000    54.88000000
   C    -11.42000000   -34.91000000    55.14000000
   O    -11.30000000   -35.50000000    56.20000000
   C    -13.95000000   -34.87000000    54.69000000
   C    -14.00000000   -35.90000000    53.56000000
   C    -15.23000000   -36.78000000    53.40000000
   C    -15.15000000   -38.02000000    54.29000000
   N    -16.45000000   -38.63000000    54.58000000
   H    -13.24000000   -33.27000000    52.97000000
   H    -12.85000000   -33.60000000    55.84000000
   H    -14.76000000   -34.17000000    54.49000000
   H    -14.06000000   -35.55000000    55.54000000
   H    -13.22000000   -36.66000000    53.60000000
   H    -13.95000000   -35.33000000    52.63000000
   H    -15.32000000   -37.09000000    52.36000000
   H    -16.15000000   -36.22000000    53.54000000
   H    -14.93000000   -37.62000000    55.28000000
   H    -14.33000000   -38.69000000    54.00000000
   H    -16.95000000   -37.95000000    55.13000000
   H    -16.95000000   -38.86000000    53.73000000
   H    -16.33000000   -39.44000000    55.18000000
   N    -10.53000000   -34.88000000    54.14000000
   C     -9.33000000   -35.68000000    54.11000000
   C     -8.07000000   -34.88000000    53.83000000
   O     -6.96000000   -35.22000000    54.24000000
   C     -9.47000000   -36.87000000    53.15000000
   C    -10.02000000   -36.42000000    51.81000000
   O     -9.19000000   -35.99000000    50.98000000
   O    -11.23000000   -36.52000000    51.49000000
   H    -10.78000000   -34.41000000    53.28000000
   H     -9.22000000   -36.19000000    55.07000000
   H    -10.18000000   -37.59000000    53.53000000
   H     -8.51000000   -37.36000000    52.99000000
   N     -8.20000000   -33.69000000    53.25000000
   C     -7.11000000   -32.82000000    52.84000000
   C     -6.75000000   -32.64000000    51.37000000
   O     -5.89000000   -31.83000000    51.03000000
   H     -9.11000000   -33.45000000    52.90000000
   H     -6.21000000   -33.10000000    53.37000000
   H     -7.40000000   -31.85000000    53.25000000
   N     -7.35000000   -33.43000000    50.48000000
   C     -7.14000000   -33.56000000    49.05000000
   C     -8.37000000   -33.07000000    48.29000000
   O     -9.49000000   -33.41000000    48.67000000
   C     -6.86000000   -35.02000000    48.69000000
   C     -5.89000000   -35.56000000    49.73000000
   N     -6.38000000   -36.23000000    50.77000000
   O     -4.69000000   -35.33000000    49.79000000
   H     -7.87000000   -34.21000000    50.84000000
   H     -6.36000000   -32.89000000    48.69000000
   H     -6.51000000   -34.99000000    47.66000000
   H     -7.75000000   -35.65000000    48.61000000
   H     -7.37000000   -36.39000000    50.83000000
   H     -5.80000000   -36.58000000    51.52000000
   N     -8.14000000   -32.29000000    47.23000000
   C     -9.18000000   -31.57000000    46.52000000
   C    -10.16000000   -32.43000000    45.73000000
   O    -11.07000000   -31.89000000    45.10000000
   H     -7.17000000   -32.14000000    47.01000000
   H     -8.58000000   -30.93000000    45.87000000
   H     -9.72000000   -30.91000000    47.19000000
   N     -9.80000000   -33.68000000    45.47000000
   C    -10.62000000   -34.59000000    44.70000000
   C    -11.90000000   -34.83000000    45.49000000
   O    -11.83000000   -34.93000000    46.72000000
   C     -9.79000000   -35.86000000    44.50000000
   C    -10.49000000   -37.04000000    43.89000000
   C    -11.03000000   -38.04000000    44.71000000
   C    -10.48000000   -37.14000000    42.49000000
   C    -11.66000000   -39.13000000    44.08000000
   C    -11.07000000   -38.23000000    41.84000000
   C    -11.65000000   -39.20000000    42.67000000
   O    -12.13000000   -40.29000000    42.00000000
   H     -8.88000000   -34.00000000    45.74000000
   H    -10.91000000   -34.27000000    43.70000000
   H     -9.49000000   -36.17000000    45.50000000
   H     -8.91000000   -35.54000000    43.94000000
   H    -11.13000000   -37.87000000    45.77000000
   H    -10.03000000   -36.33000000    41.93000000
   H    -12.14000000   -39.91000000    44.65000000
   H    -10.93000000   -38.27000000    40.77000000
   H    -11.95000000   -40.06000000    41.08000000
   N    -13.00000000   -34.85000000    44.75000000
   C    -14.40000000   -35.08000000    45.06000000
   C    -14.73000000   -36.46000000    45.61000000
   O    -13.93000000   -37.14000000    46.25000000
   C    -14.88000000   -33.91000000    45.91000000
   C    -16.25000000   -33.99000000    46.56000000
   C    -14.77000000   -32.60000000    45.13000000
   C    -16.64000000   -32.90000000    47.55000000
   H    -12.90000000   -34.56000000    43.79000000
   H    -14.99000000   -35.07000000    44.14000000
   H    -14.17000000   -33.83000000    46.74000000
   H    -16.22000000   -34.93000000    47.11000000
   H    -16.97000000   -33.99000000    45.74000000
   H    -13.75000000   -32.48000000    44.75000000
   H    -15.37000000   -32.65000000    44.22000000
   H    -15.17000000   -31.74000000    45.66000000
   H    -15.82000000   -32.77000000    48.26000000
   H    -16.90000000   -32.04000000    46.93000000
   H    -17.55000000   -33.06000000    48.12000000
   N    -15.98000000   -36.88000000    45.37000000
   C    -16.56000000   -38.09000000    45.90000000
   C    -17.47000000   -38.87000000    44.96000000
   O    -17.54000000   -40.08000000    45.13000000
   C    -17.38000000   -37.64000000    47.10000000
   O    -18.42000000   -36.73000000    46.82000000
   H    -16.62000000   -36.27000000    44.88000000
   H    -15.79000000   -38.67000000    46.41000000
   H    -16.72000000   -37.13000000    47.81000000
   H    -17.78000000   -38.53000000    47.61000000
   H    -18.72000000   -36.34000000    47.64000000
   N    -18.11000000   -38.21000000    43.99000000
   C    -19.09000000   -38.78000000    43.08000000
   C    -20.08000000   -39.73000000    43.73000000
   O    -20.23000000   -40.86000000    43.28000000
   C    -18.46000000   -39.29000000    41.79000000
   H    -17.74000000   -37.32000000    43.69000000
   H    -19.78000000   -37.99000000    42.78000000
   H    -19.25000000   -39.77000000    41.22000000
   H    -18.10000000   -38.47000000    41.17000000
   H    -17.74000000   -40.05000000    42.12000000
   N    -20.86000000   -39.37000000    44.76000000
   C    -21.17000000   -38.08000000    45.35000000
   C    -22.20000000   -37.28000000    44.57000000
   O    -23.31000000   -37.73000000    44.29000000
   C    -21.61000000   -38.20000000    46.81000000
   H    -21.42000000   -40.13000000    45.10000000
   H    -20.27000000   -37.47000000    45.37000000
   H    -21.64000000   -37.19000000    47.23000000
   H    -22.59000000   -38.67000000    46.74000000
   H    -20.87000000   -38.78000000    47.36000000
   N    -21.97000000   -35.98000000    44.36000000
   C    -20.98000000   -35.09000000    44.91000000
   C    -20.55000000   -34.02000000    43.92000000
   O    -19.37000000   -33.70000000    43.73000000
   C    -21.55000000   -34.39000000    46.14000000
   C    -20.63000000   -33.48000000    46.96000000
   C    -21.24000000   -33.25000000    48.33000000
   O    -21.17000000   -34.09000000    49.25000000
   O    -21.79000000   -32.14000000    48.51000000
   H    -22.74000000   -35.43000000    44.02000000
   H    -20.01000000   -35.57000000    45.07000000
   H    -21.87000000   -35.22000000    46.77000000
   H    -22.47000000   -33.82000000    45.98000000
   H    -20.46000000   -32.55000000    46.42000000
   H    -19.66000000   -33.96000000    47.10000000
   N    -21.48000000   -33.52000000    43.11000000
   C    -21.32000000   -32.73000000    41.90000000
   H    -20.27000000   -32.72100000    41.60900000
   H    -21.91500000   -33.16800000    41.09800000
   H    -21.65400000   -31.70900000    42.08500000
   H    -22.46000000   -33.64000000    43.34000000
  Ca    -11.41500000   -35.14500000    49.33000000
   O     -9.84500000   -36.99500000    48.11000000
   H     -9.90500000   -37.90500000    48.42000000
   H     -9.04500000   -36.97500000    47.59000000
   O    -13.92500000   -34.83500000    49.79000000
   H    -14.70500000   -35.39500000    49.81000000
   H    -14.16500000   -34.06500000    50.31000000
   O    -12.85500000   -37.97500000    48.45000000
   H    -13.63500000   -37.97500000    49.02000000
   H    -13.19500000   -37.74500000    47.59000000

Ca 1.00



