%chk=loop2.apoCaM-CA-Ng.Init31.run45.water3.chk
%nprocshared=20
%mem=10GB
%nosave
#b3lyp/svp scf=(tight,noincore,xqc) Test 
#IOP(5/87=12) Density=Current Pop=(MK,readradii) iop(6/33=2) iop(6/42=6)

loop2.apoCaM-CA-Ng.Init31.run45.water3 

   -2  1 
   C    118.73000000    47.07000000    -1.02000000
   C    118.09000000    48.44000000    -0.86000000
   O    116.86000000    48.47000000    -0.88000000
   H    119.69700000    47.06000000    -0.51700000
   H    118.08300000    46.31200000    -0.57700000
   H    118.87000000    46.85500000    -2.07900000
   N    118.75000000    49.59000000    -0.95000000
   C    120.17000000    49.86000000    -1.13000000
   C    120.39000000    50.96000000    -2.16000000
   O    119.62000000    51.92000000    -2.21000000
   C    120.95000000    50.27000000     0.11000000
   C    120.37000000    51.39000000     0.96000000
   O    119.36000000    52.03000000     0.61000000
   O    120.97000000    51.60000000     2.04000000
   H    118.21000000    50.44000000    -0.85000000
   H    120.74000000    49.02000000    -1.52000000
   H    121.96000000    50.49000000    -0.24000000
   H    120.99000000    49.36000000     0.72000000
   N    121.52000000    50.81000000    -2.85000000
   C    122.12000000    51.62000000    -3.89000000
   C    122.60000000    53.00000000    -3.48000000
   O    123.52000000    53.56000000    -4.07000000
   C    121.20000000    51.58000000    -5.11000000
   H    121.98000000    49.91000000    -2.79000000
   H    123.03000000    51.10000000    -4.18000000
   H    120.20000000    51.95000000    -4.88000000
   H    121.68000000    52.06000000    -5.96000000
   H    121.11000000    50.51000000    -5.32000000
   N    121.88000000    53.64000000    -2.55000000
   C    121.96000000    54.99000000    -2.03000000
   C    121.45000000    55.14000000    -0.60000000
   O    120.51000000    54.43000000    -0.25000000
   C    121.27000000    55.97000000    -2.96000000
   C    119.85000000    55.66000000    -3.42000000
   O    119.07000000    55.03000000    -2.69000000
   O    119.48000000    55.93000000    -4.59000000
   H    120.97000000    53.27000000    -2.31000000
   H    123.01000000    55.29000000    -2.01000000
   H    121.92000000    56.06000000    -3.83000000
   H    121.31000000    56.93000000    -2.44000000
   N    122.00000000    56.12000000     0.11000000
   C    121.66000000    56.27000000     1.51000000
   C    120.52000000    57.27000000     1.68000000
   O    120.29000000    58.16000000     0.87000000
   H    122.71000000    56.75000000    -0.24000000
   H    122.52000000    56.57000000     2.12000000
   H    121.39000000    55.28000000     1.87000000
   N    119.72000000    57.09000000     2.73000000
   C    118.51000000    57.83000000     3.03000000
   C    118.49000000    58.29000000     4.48000000
   O    119.14000000    57.66000000     5.31000000
   C    117.27000000    57.06000000     2.60000000
   C    117.09000000    56.96000000     1.09000000
   N    116.57000000    58.05000000     0.53000000
   O    117.47000000    55.97000000     0.47000000
   H    119.99000000    56.35000000     3.36000000
   H    118.52000000    58.75000000     2.43000000
   H    116.37000000    57.46000000     3.06000000
   H    117.40000000    56.04000000     2.98000000
   H    116.19000000    58.79000000     1.10000000
   H    116.79000000    58.29000000    -0.43000000
   N    117.76000000    59.38000000     4.72000000
   C    117.44000000    59.74000000     6.09000000
   C    116.56000000    60.98000000     6.22000000
   O    116.30000000    61.63000000     5.20000000
   H    117.23000000    59.85000000     4.00000000
   H    118.37000000    59.83000000     6.65000000
   H    116.95000000    58.94000000     6.64000000
   N    116.04000000    61.31000000     7.40000000
   C    116.12000000    60.57000000     8.64000000
   C    114.99000000    59.55000000     8.80000000
   O    115.13000000    58.60000000     9.57000000
   C    116.07000000    61.54000000     9.81000000
   C    117.15000000    62.60000000     9.95000000
   O    114.85000000    62.25000000     9.85000000
   H    115.50000000    62.17000000     7.39000000
   H    117.08000000    60.08000000     8.80000000
   H    116.09000000    61.06000000    10.79000000
   H    114.32000000    61.75000000    10.48000000
   H    116.81000000    63.22000000    10.79000000
   H    118.09000000    62.14000000    10.26000000
   H    117.36000000    63.22000000     9.08000000
   N    113.97000000    59.57000000     7.94000000
   C    112.74000000    58.80000000     7.93000000
   C    111.86000000    58.98000000     9.16000000
   O    111.99000000    58.23000000    10.12000000
   C    113.03000000    57.37000000     7.50000000
   C    114.06000000    57.20000000     6.38000000
   C    111.70000000    56.71000000     7.14000000
   C    113.69000000    57.82000000     5.04000000
   H    113.99000000    60.42000000     7.39000000
   H    112.22000000    59.24000000     7.07000000
   H    113.38000000    56.82000000     8.38000000
   H    114.13000000    56.13000000     6.19000000
   H    115.02000000    57.54000000     6.77000000
   H    111.19000000    57.23000000     6.33000000
   H    111.89000000    55.67000000     6.90000000
   H    110.94000000    56.73000000     7.92000000
   H    114.38000000    57.51000000     4.26000000
   H    112.66000000    57.64000000     4.73000000
   H    113.81000000    58.90000000     5.11000000
   N    110.78000000    59.76000000     9.14000000
   C    110.14000000    60.31000000     7.96000000
   C    109.32000000    59.30000000     7.18000000
   O    109.36000000    59.34000000     5.95000000
   C    109.34000000    61.48000000     8.53000000
   C    108.44000000    61.26000000     9.74000000
   O    108.26000000    60.08000000    10.12000000
   O    107.72000000    62.21000000    10.11000000
   H    110.23000000    59.86000000     9.98000000
   H    110.93000000    60.59000000     7.26000000
   H    108.76000000    61.99000000     7.76000000
   H    110.10000000    62.19000000     8.83000000
   N    108.67000000    58.42000000     7.95000000
   C    107.74000000    57.44000000     7.42000000
   C    106.33000000    57.99000000     7.41000000
   O    106.02000000    58.89000000     8.19000000
   C    107.85000000    56.17000000     8.26000000
   C    107.06000000    56.20000000     9.55000000
   C    107.68000000    56.68000000    10.71000000
   C    105.73000000    55.76000000     9.59000000
   C    106.99000000    56.80000000    11.92000000
   C    105.10000000    55.70000000    10.84000000
   C    105.73000000    56.19000000    11.99000000
   H    108.73000000    58.68000000     8.92000000
   H    108.13000000    57.21000000     6.43000000
   H    108.88000000    55.92000000     8.50000000
   H    107.64000000    55.23000000     7.74000000
   H    108.67000000    57.09000000    10.60000000
   H    105.26000000    55.27000000     8.75000000
   H    107.26000000    57.49000000    12.70000000
   H    104.21000000    55.11000000    11.00000000
   H    105.14000000    56.21000000    12.89000000
   N    105.45000000    57.63000000     6.47000000
   C    105.71000000    56.58000000     5.50000000
   C    106.59000000    56.93000000     4.32000000
   O    107.37000000    57.88000000     4.40000000
   C    104.32000000    56.20000000     5.02000000
   C    103.36000000    56.65000000     6.11000000
   C    104.04000000    57.94000000     6.58000000
   H    106.20000000    55.78000000     6.07000000
   H    104.01000000    56.75000000     4.13000000
   H    104.18000000    55.13000000     4.85000000
   H    102.36000000    56.84000000     5.73000000
   H    103.41000000    55.88000000     6.88000000
   H    103.66000000    58.75000000     5.96000000
   H    103.78000000    58.18000000     7.61000000
   N    106.67000000    56.00000000     3.37000000
   C    107.41000000    56.28000000     2.15000000
   C    108.24000000    55.05000000     1.78000000
   O    108.46000000    54.74000000     0.62000000
   C    106.42000000    56.75000000     1.09000000
   C    106.30000000    58.27000000     1.08000000
   C    107.42000000    58.97000000     0.31000000
   O    107.17000000    59.12000000    -0.91000000
   O    108.44000000    59.42000000     0.86000000
   H    106.23000000    55.10000000     3.47000000
   H    108.15000000    57.07000000     2.29000000
   H    105.44000000    56.31000000     1.27000000
   H    106.64000000    56.36000000     0.10000000
   H    106.28000000    58.68000000     2.09000000
   H    105.33000000    58.50000000     0.64000000
   N    108.92000000    54.21000000     2.56000000
   C    109.09000000    54.09000000     4.00000000
   H    109.74500000    54.88500000     4.35500000
   H    108.12000000    54.17400000     4.48900000
   H    109.53400000    53.12200000     4.23500000
   H    109.20000000    53.43000000     1.98000000
  Ca    117.95900000    53.69000000    -0.65900000
   O    116.73900000    52.61000000     1.60000000
   H    116.81900000    53.00000000     2.47000000
   H    116.46900000    51.71000000     1.75000000
   O    115.77900000    54.08000000    -2.11900000
   H    114.95900000    54.56000000    -1.98900000
   H    115.89900000    54.09000000    -3.06900000
   O    116.32900000    51.36000000    -1.87900000
   H    115.40900000    51.53000000    -1.70900000
   H    116.32900000    50.79000000    -2.64900000

Ca 1.00



