%chk=loop4.holoCaM.run36.water2.chk
%nprocshared=20
%mem=10GB
%nosave
#b3lyp/svp scf=(tight,noincore,xqc) Test 
#IOP(5/87=12) Density=Current Pop=(MK,readradii) iop(6/33=2) iop(6/42=6)

loop4.holoCaM.run36.water2 

   -3  1 
   C     82.26000000    61.93000000    80.07500000
   C     82.96000000    63.26000000    80.30500000
   O     82.20000000    64.20000000    80.55500000
   H     81.31200000    62.10200000    79.56600000
   H     82.89100000    61.28900000    79.45900000
   H     82.07400000    61.44600000    81.03400000
   N     84.29000000    63.30000000    80.24500000
   C     85.13000000    64.48000000    80.22500000
   C     85.00000000    65.38000000    79.00500000
   O     85.39000000    65.02000000    77.89500000
   C     86.57000000    64.06000000    80.48500000
   C     87.51000000    65.25000000    80.68500000
   O     88.75000000    65.12000000    80.54500000
   O     87.06000000    66.40000000    80.86500000
   H     84.75000000    62.42000000    80.04500000
   H     85.00000000    65.05000000    81.14500000
   H     86.96000000    63.49000000    79.64500000
   H     86.60000000    63.41000000    81.36500000
   N     84.25000000    66.48000000    79.13500000
   C     83.84000000    67.35000000    78.06500000
   C     84.91000000    68.36000000    77.68500000
   O     84.73000000    68.92000000    76.61500000
   C     82.48000000    68.04000000    78.21500000
   C     82.49000000    68.85000000    79.50500000
   C     81.44000000    66.93000000    78.13500000
   C     81.21000000    69.69000000    79.50500000
   H     83.91000000    66.60000000    80.07500000
   H     83.77000000    66.68000000    77.21500000
   H     82.44000000    68.59000000    77.26500000
   H     83.32000000    69.55000000    79.57500000
   H     82.50000000    68.21000000    80.38500000
   H     81.35000000    66.32000000    79.03500000
   H     80.45000000    67.36000000    77.99500000
   H     81.57000000    66.27000000    77.27500000
   H     80.95000000    69.97000000    80.52500000
   H     81.41000000    70.59000000    78.93500000
   H     80.39000000    69.13000000    79.05500000
   N     85.80000000    68.70000000    78.62500000
   C     86.73000000    69.78000000    78.40500000
   C     88.16000000    69.26000000    78.37500000
   O     89.00000000    70.03000000    77.91500000
   C     86.55000000    70.74000000    79.58500000
   C     86.41000000    70.08000000    80.94500000
   O     87.45000000    69.82000000    81.58500000
   O     85.33000000    69.62000000    81.38500000
   H     85.66000000    68.27000000    79.52500000
   H     86.45000000    70.31000000    77.48500000
   H     85.74000000    71.45000000    79.42500000
   H     87.46000000    71.34000000    79.63500000
   N     88.42000000    68.00000000    78.73500000
   C     89.71000000    67.35000000    78.59500000
   C     90.73000000    67.77000000    79.65500000
   O     91.71000000    68.45000000    79.36500000
   H     87.64000000    67.52000000    79.16500000
   H     90.16000000    67.74000000    77.68500000
   H     89.59000000    66.27000000    78.61500000
   N     90.56000000    67.25000000    80.87500000
   C     91.59000000    67.15000000    81.88500000
   C     91.84000000    65.73000000    82.37500000
   O     92.65000000    65.52000000    83.27500000
   C     91.30000000    68.15000000    83.00500000
   C     89.97000000    68.14000000    83.74500000
   O     89.01000000    67.44000000    83.33500000
   O     89.91000000    68.92000000    84.72500000
   H     89.66000000    66.80000000    80.96500000
   H     92.53000000    67.44000000    81.41500000
   H     91.49000000    69.15000000    82.62500000
   H     92.06000000    68.02000000    83.76500000
   N     91.02000000    64.78000000    81.91500000
   C     90.94000000    63.34000000    82.07500000
   C     90.06000000    62.89000000    83.22500000
   O     90.23000000    61.77000000    83.70500000
   H     90.25000000    65.10000000    81.34500000
   H     91.96000000    62.97000000    82.05500000
   H     90.49000000    62.97000000    81.15500000
   N     89.17000000    63.77000000    83.69500000
   C     88.37000000    63.71000000    84.90500000
   C     87.03000000    64.42000000    84.83500000
   O     86.87000000    65.27000000    83.96500000
   C     89.22000000    64.15000000    86.09500000
   C     89.59000000    65.63000000    85.96500000
   C     90.59000000    66.15000000    86.98500000
   N     91.01000000    67.41000000    86.87500000
   O     91.05000000    65.47000000    87.89500000
   H     89.21000000    64.67000000    83.24500000
   H     88.07000000    62.68000000    85.08500000
   H     90.20000000    63.68000000    86.17500000
   H     88.61000000    64.07000000    86.99500000
   H     88.69000000    66.21000000    86.18500000
   H     90.09000000    65.85000000    85.02500000
   H     90.57000000    68.02000000    86.20500000
   H     91.65000000    67.76000000    87.57500000
   N     86.07000000    64.16000000    85.73500000
   C     84.81000000    64.87000000    85.83500000
   C     84.80000000    65.77000000    87.06500000
   O     85.15000000    65.38000000    88.17500000
   C     83.59000000    63.96000000    85.75500000
   C     83.42000000    63.30000000    84.38500000
   C     83.56000000    62.87000000    86.82500000
   H     86.18000000    63.42000000    86.40500000
   H     84.87000000    65.50000000    84.95500000
   H     82.70000000    64.58000000    85.87500000
   H     84.41000000    62.96000000    84.06500000
   H     82.81000000    62.40000000    84.37500000
   H     83.16000000    64.03000000    83.62500000
   H     82.66000000    62.26000000    86.78500000
   H     84.39000000    62.22000000    86.58500000
   H     83.58000000    63.36000000    87.80500000
   N     84.17000000    66.94000000    86.88500000
   C     83.62000000    67.76000000    87.94500000
   C     82.15000000    67.37000000    88.04500000
   O     81.62000000    66.57000000    87.27500000
   C     83.82000000    69.21000000    87.53500000
   C     82.68000000    69.88000000    86.77500000
   N     82.56000000    69.82000000    85.44500000
   O     81.87000000    70.53000000    87.42500000
   H     83.76000000    67.16000000    85.99500000
   H     84.03000000    67.53000000    88.93500000
   H     84.76000000    69.27000000    86.97500000
   H     83.92000000    69.85000000    88.41500000
   H     83.33000000    69.40000000    84.94500000
   H     81.82000000    70.29000000    84.95500000
   N     81.46000000    67.85000000    89.08500000
   C     80.11000000    67.47000000    89.43500000
   C     79.10000000    67.81000000    88.35500000
   O     78.17000000    67.03000000    88.14500000
   C     79.83000000    68.31000000    90.68500000
   C     78.45000000    68.10000000    91.27500000
   C     78.04000000    66.90000000    91.86500000
   C     77.53000000    69.11000000    91.00500000
   C     76.69000000    66.82000000    92.24500000
   C     76.22000000    69.03000000    91.48500000
   C     75.77000000    67.88000000    92.15500000
   O     74.48000000    67.74000000    92.59500000
   H     82.02000000    68.42000000    89.70500000
   H     80.11000000    66.46000000    89.85500000
   H     79.86000000    69.36000000    90.39500000
   H     80.59000000    68.05000000    91.41500000
   H     78.70000000    66.04000000    91.95500000
   H     77.78000000    70.02000000    90.47500000
   H     76.34000000    65.86000000    92.60500000
   H     75.58000000    69.88000000    91.28500000
   H     73.89000000    68.42000000    92.27500000
   N     79.32000000    68.91000000    87.63500000
   C     78.42000000    69.25000000    86.55500000
   C     78.52000000    68.41000000    85.28500000
   O     77.67000000    68.41000000    84.40500000
   C     78.66000000    70.71000000    86.17500000
   C     78.52000000    71.71000000    87.31500000
   C     78.62000000    73.15000000    86.81500000
   O     79.71000000    73.70000000    86.58500000
   O     77.52000000    73.66000000    86.51500000
   H     80.14000000    69.46000000    87.84500000
   H     77.38000000    69.23000000    86.88500000
   H     78.03000000    71.03000000    85.34500000
   H     79.69000000    70.70000000    85.80500000
   H     79.27000000    71.46000000    88.06500000
   H     77.52000000    71.51000000    87.70500000
   N     79.66000000    67.72000000    85.13500000
   C     79.78000000    66.57000000    84.25500000
   C     79.26000000    65.24000000    84.76500000
   O     78.67000000    64.44000000    84.03500000
   C     81.26000000    66.32000000    83.94500000
   C     81.86000000    67.35000000    82.99500000
   C     83.38000000    67.30000000    83.10500000
   O     83.94000000    67.77000000    84.11500000
   O     84.09000000    66.94000000    82.14500000
   H     80.34000000    67.82000000    85.87500000
   H     79.13000000    66.81000000    83.41500000
   H     81.35000000    65.34000000    83.49500000
   H     81.75000000    66.31000000    84.91500000
   H     81.40000000    68.31000000    83.24500000
   H     81.58000000    67.09000000    81.97500000
   N     79.45000000    65.05000000    86.07500000
   C     79.11000000    63.85000000    86.80500000
   H     78.11000000    63.52300000    86.52000000
   H     79.82900000    63.06500000    86.57100000
   H     79.13200000    64.05600000    87.87500000
   H     79.97000000    65.79000000    86.53500000
  Ca     86.45000000    67.78000000    83.09000000
   O     87.40000000    68.25000000    85.45000000
   H     87.38000000    68.54000000    86.36000000
   H     88.31000000    68.39000000    85.17000000
   O     86.07000000    70.28000000    84.19000000
   H     86.93000000    70.68000000    84.32000000
   H     85.45000000    71.00000000    84.29000000

Ca 1.00



