%chk=loop2.holoCaM-CaMKII.run68.water2.chk
%nprocshared=20
%mem=10GB
%nosave
#b3lyp/svp scf=(tight,noincore,xqc) Test 
#IOP(5/87=12) Density=Current Pop=(MK,readradii) iop(6/33=2) iop(6/42=6)

loop2.holoCaM-CaMKII.run68.water2 

   -2  1 
   C     13.44000000    59.32000000     6.15000000
   C     13.20000000    60.33000000     5.03000000
   O     14.07000000    60.76000000     4.28000000
   H     14.24000000    59.68000000     6.79800000
   H     12.52700000    59.20000000     6.73300000
   H     13.72600000    58.36000000     5.71900000
   N     11.90000000    60.57000000     4.83000000
   C     11.43000000    61.25000000     3.65000000
   C     11.92000000    62.69000000     3.56000000
   O     12.10000000    63.39000000     4.55000000
   C      9.90000000    61.16000000     3.65000000
   C      9.23000000    61.64000000     2.37000000
   O      9.75000000    61.54000000     1.24000000
   O      8.04000000    61.98000000     2.57000000
   H     11.21000000    60.22000000     5.48000000
   H     11.80000000    60.69000000     2.79000000
   H      9.47000000    61.62000000     4.54000000
   H      9.65000000    60.10000000     3.71000000
   N     12.09000000    63.19000000     2.34000000
   C     12.18000000    64.61000000     2.06000000
   C     11.34000000    65.17000000     0.92000000
   O     11.68000000    66.28000000     0.50000000
   C     13.65000000    64.97000000     1.85000000
   H     12.31000000    62.51000000     1.62000000
   H     11.84000000    65.13000000     2.95000000
   H     14.01000000    64.65000000     0.87000000
   H     13.69000000    66.05000000     2.02000000
   H     14.20000000    64.39000000     2.59000000
   N     10.38000000    64.44000000     0.35000000
   C      9.63000000    64.84000000    -0.82000000
   C      8.16000000    64.44000000    -0.89000000
   O      7.34000000    65.15000000    -1.47000000
   C     10.27000000    64.38000000    -2.13000000
   C     10.62000000    62.90000000    -2.14000000
   O      9.76000000    62.05000000    -1.82000000
   O     11.80000000    62.62000000    -2.43000000
   H     10.21000000    63.55000000     0.80000000
   H      9.54000000    65.92000000    -0.84000000
   H     11.24000000    64.87000000    -2.15000000
   H      9.67000000    64.67000000    -2.99000000
   N      7.79000000    63.46000000    -0.07000000
   C      6.44000000    62.92000000    -0.07000000
   C      6.07000000    61.91000000    -1.14000000
   O      4.88000000    61.65000000    -1.22000000
   H      8.46000000    62.81000000     0.31000000
   H      5.69000000    63.71000000    -0.17000000
   H      6.37000000    62.35000000     0.86000000
   N      6.98000000    61.43000000    -1.99000000
   C      6.75000000    60.52000000    -3.09000000
   C      6.38000000    59.07000000    -2.83000000
   O      5.93000000    58.44000000    -3.78000000
   C      7.91000000    60.58000000    -4.09000000
   C      9.15000000    59.83000000    -3.62000000
   N     10.23000000    60.10000000    -4.36000000
   O      9.24000000    59.17000000    -2.59000000
   H      7.96000000    61.67000000    -1.92000000
   H      5.87000000    60.88000000    -3.63000000
   H      8.18000000    61.63000000    -4.13000000
   H      7.59000000    60.18000000    -5.05000000
   H     10.24000000    60.90000000    -4.98000000
   H     11.08000000    59.78000000    -3.93000000
   N      6.26000000    58.65000000    -1.57000000
   C      5.79000000    57.33000000    -1.19000000
   C      6.88000000    56.27000000    -1.23000000
   O      6.67000000    55.09000000    -0.98000000
   H      6.57000000    59.25000000    -0.81000000
   H      5.00000000    56.96000000    -1.85000000
   H      5.47000000    57.35000000    -0.15000000
   N      8.09000000    56.64000000    -1.66000000
   C      9.18000000    55.71000000    -1.85000000
   C     10.51000000    56.23000000    -1.34000000
   O     10.72000000    57.41000000    -1.07000000
   C      9.39000000    55.44000000    -3.34000000
   C      8.39000000    54.40000000    -3.84000000
   O      9.30000000    56.63000000    -4.09000000
   H      8.21000000    57.61000000    -1.95000000
   H      8.96000000    54.76000000    -1.35000000
   H     10.36000000    54.97000000    -3.47000000
   H      9.63000000    57.43000000    -3.66000000
   H      8.67000000    54.13000000    -4.86000000
   H      8.55000000    53.60000000    -3.12000000
   H      7.34000000    54.69000000    -3.90000000
   N     11.51000000    55.38000000    -1.09000000
   C     12.80000000    55.71000000    -0.50000000
   C     13.72000000    56.11000000    -1.64000000
   O     13.98000000    55.31000000    -2.53000000
   C     13.36000000    54.50000000     0.24000000
   C     12.48000000    53.84000000     1.30000000
   C     14.68000000    54.84000000     0.92000000
   C     13.03000000    52.54000000     1.88000000
   H     11.18000000    54.43000000    -1.07000000
   H     12.64000000    56.51000000     0.23000000
   H     13.61000000    53.75000000    -0.51000000
   H     11.52000000    53.58000000     0.88000000
   H     12.24000000    54.50000000     2.14000000
   H     14.51000000    55.53000000     1.74000000
   H     15.17000000    53.93000000     1.27000000
   H     15.38000000    55.23000000     0.18000000
   H     12.94000000    51.77000000     1.11000000
   H     14.02000000    52.63000000     2.31000000
   H     12.30000000    52.35000000     2.67000000
   N     14.27000000    57.33000000    -1.58000000
   C     15.17000000    57.76000000    -2.63000000
   C     16.60000000    57.56000000    -2.15000000
   O     16.82000000    57.43000000    -0.94000000
   C     14.91000000    59.24000000    -2.88000000
   C     13.51000000    59.47000000    -3.41000000
   O     12.56000000    59.52000000    -2.60000000
   O     13.27000000    59.57000000    -4.64000000
   H     14.01000000    58.09000000    -0.97000000
   H     15.03000000    57.33000000    -3.62000000
   H     15.63000000    59.66000000    -3.58000000
   H     15.14000000    59.84000000    -2.00000000
   N     17.59000000    57.54000000    -3.05000000
   C     18.99000000    57.35000000    -2.73000000
   C     19.52000000    58.22000000    -1.60000000
   O     20.21000000    57.60000000    -0.79000000
   C     19.82000000    57.57000000    -3.99000000
   C     21.13000000    56.83000000    -3.84000000
   C     22.22000000    57.44000000    -3.21000000
   C     21.33000000    55.49000000    -4.19000000
   C     23.45000000    56.78000000    -3.07000000
   C     22.55000000    54.80000000    -4.05000000
   C     23.64000000    55.45000000    -3.48000000
   H     17.35000000    57.57000000    -4.03000000
   H     19.07000000    56.29000000    -2.50000000
   H     20.11000000    58.62000000    -3.97000000
   H     19.26000000    57.25000000    -4.87000000
   H     22.20000000    58.47000000    -2.89000000
   H     20.47000000    54.97000000    -4.58000000
   H     24.25000000    57.30000000    -2.57000000
   H     22.56000000    53.75000000    -4.29000000
   H     24.58000000    54.91000000    -3.38000000
   N     19.17000000    59.49000000    -1.40000000
   C     19.69000000    60.28000000    -0.31000000
   C     18.96000000    59.99000000     0.99000000
   O     19.37000000    60.47000000     2.05000000
   C     19.62000000    61.75000000    -0.72000000
   C     19.22000000    61.74000000    -2.19000000
   C     18.54000000    60.39000000    -2.35000000
   H     20.73000000    60.01000000    -0.15000000
   H     18.92000000    62.32000000    -0.10000000
   H     20.59000000    62.24000000    -0.55000000
   H     18.51000000    62.52000000    -2.47000000
   H     20.11000000    61.74000000    -2.82000000
   H     17.49000000    60.50000000    -2.06000000
   H     18.66000000    60.09000000    -3.39000000
   N     17.85000000    59.25000000     0.99000000
   C     17.11000000    59.02000000     2.21000000
   C     17.62000000    57.71000000     2.78000000
   O     17.64000000    57.60000000     4.01000000
   C     15.61000000    58.91000000     1.93000000
   C     14.95000000    60.12000000     1.28000000
   C     13.54000000    60.02000000     0.73000000
   O     12.90000000    61.09000000     0.59000000
   O     13.01000000    58.90000000     0.54000000
   H     17.46000000    58.87000000     0.14000000
   H     17.25000000    59.83000000     2.94000000
   H     15.17000000    58.69000000     2.90000000
   H     15.56000000    58.07000000     1.23000000
   H     15.54000000    60.44000000     0.41000000
   H     14.99000000    60.92000000     2.02000000
   N     18.03000000    56.77000000     1.92000000
   C     18.67000000    55.52000000     2.27000000
   H     19.61400000    55.72500000     2.77500000
   H     18.01900000    54.95100000     2.93400000
   H     18.86100000    54.94300000     1.36500000
   H     18.09000000    57.12000000     0.98000000
  Ca     10.88000000    59.96000000    -0.65100000
   O     10.60000000    58.65000000     1.80000000
   H     10.22000000    58.31000000     2.61000000
   H     11.52000000    58.42000000     1.85000000
   O      8.31000000    59.48000000     0.18000000
   H      8.23000000    60.27000000     0.73000000
   H      7.88000000    58.79000000     0.69000000

Ca 1.00



