%chk=loop1.apoCaM-CA-Ng.Init295.run3.water5.chk
%nprocshared=20
%mem=10GB
%nosave
#b3lyp/svp scf=(tight,noincore,xqc) Test 
#IOP(5/87=12) Density=Current Pop=(MK,readradii) iop(6/33=2) iop(6/42=6)

loop1.apoCaM-CA-Ng.Init295.run3.water5 

   0  1 
   C     33.42000000    44.50000000    19.71000000
   C     34.59000000    45.42000000    19.40000000
   O     35.41000000    45.14000000    18.52000000
   H     32.56300000    44.78600000    19.10100000
   H     33.69700000    43.47000000    19.48600000
   H     33.16000000    44.58500000    20.76500000
   N     34.57000000    46.60000000    20.03000000
   C     35.46000000    47.74000000    20.05000000
   C     35.67000000    48.52000000    18.76000000
   O     36.61000000    49.30000000    18.62000000
   C     36.73000000    47.29000000    20.78000000
   C     37.60000000    48.39000000    21.37000000
   O     37.17000000    49.51000000    21.71000000
   O     38.80000000    48.09000000    21.59000000
   H     33.91000000    46.63000000    20.80000000
   H     35.02000000    48.48000000    20.71000000
   H     37.38000000    46.87000000    20.01000000
   H     36.51000000    46.48000000    21.47000000
   N     34.83000000    48.21000000    17.77000000
   C     34.86000000    48.76000000    16.43000000
   C     34.15000000    50.09000000    16.26000000
   O     34.33000000    50.70000000    15.21000000
   C     34.36000000    47.68000000    15.47000000
   C     35.39000000    46.56000000    15.35000000
   C     36.62000000    47.09000000    14.64000000
   C     37.52000000    45.92000000    14.26000000
   N     38.80000000    46.53000000    13.88000000
   H     33.98000000    47.74000000    18.04000000
   H     35.89000000    49.08000000    16.29000000
   H     34.17000000    48.11000000    14.49000000
   H     33.49000000    47.29000000    15.99000000
   H     34.93000000    45.79000000    14.72000000
   H     35.64000000    46.10000000    16.31000000
   H     37.19000000    47.73000000    15.32000000
   H     36.44000000    47.72000000    13.76000000
   H     37.13000000    45.34000000    13.42000000
   H     37.65000000    45.20000000    15.07000000
   H     38.66000000    47.42000000    13.43000000
   H     39.34000000    46.81000000    14.69000000
   H     39.42000000    45.88000000    13.40000000
   N     33.51000000    50.59000000    17.33000000
   C     33.15000000    51.99000000    17.46000000
   C     33.76000000    52.72000000    18.64000000
   O     33.11000000    53.60000000    19.22000000
   C     31.63000000    52.01000000    17.37000000
   C     31.03000000    53.32000000    16.88000000
   O     31.69000000    54.38000000    16.97000000
   O     29.99000000    53.25000000    16.20000000
   H     33.19000000    49.95000000    18.04000000
   H     33.56000000    52.50000000    16.59000000
   H     31.19000000    51.83000000    18.35000000
   H     31.31000000    51.21000000    16.72000000
   N     34.87000000    52.20000000    19.16000000
   C     35.38000000    52.49000000    20.49000000
   C     35.79000000    53.95000000    20.63000000
   O     36.24000000    54.58000000    19.67000000
   H     35.42000000    51.59000000    18.57000000
   H     36.15000000    51.76000000    20.73000000
   H     34.59000000    52.34000000    21.22000000
   N     35.64000000    54.39000000    21.88000000
   C     36.02000000    55.67000000    22.44000000
   C     36.76000000    55.47000000    23.76000000
   O     37.77000000    56.14000000    23.92000000
   C     34.76000000    56.49000000    22.66000000
   C     33.86000000    56.54000000    21.43000000
   O     34.34000000    57.15000000    20.46000000
   O     32.79000000    55.90000000    21.40000000
   H     35.28000000    53.71000000    22.54000000
   H     36.76000000    56.12000000    21.78000000
   H     35.08000000    57.49000000    22.93000000
   H     34.24000000    55.94000000    23.46000000
   N     36.35000000    54.55000000    24.64000000
   C     36.72000000    54.45000000    26.04000000
   C     36.53000000    53.05000000    26.61000000
   O     36.23000000    52.92000000    27.79000000
   H     35.45000000    54.12000000    24.44000000
   H     36.15000000    55.09000000    26.71000000
   H     37.72000000    54.87000000    26.14000000
   N     36.65000000    52.02000000    25.76000000
   C     36.48000000    50.63000000    26.11000000
   C     35.13000000    50.36000000    26.77000000
   O     34.13000000    50.94000000    26.37000000
   C     36.55000000    49.81000000    24.82000000
   C     36.23000000    48.34000000    25.04000000
   O     35.68000000    50.22000000    23.79000000
   H     36.65000000    52.23000000    24.77000000
   H     37.25000000    50.30000000    26.80000000
   H     37.59000000    49.88000000    24.49000000
   H     36.18000000    50.09000000    22.99000000
   H     35.18000000    48.23000000    25.31000000
   H     36.38000000    47.67000000    24.18000000
   H     36.87000000    47.99000000    25.84000000
   N     35.15000000    49.53000000    27.82000000
   C     34.03000000    49.30000000    28.71000000
   C     34.31000000    49.83000000    30.11000000
   O     33.45000000    50.31000000    30.85000000
   C     33.56000000    47.85000000    28.79000000
   C     34.37000000    46.79000000    29.53000000
   C     33.23000000    47.41000000    27.36000000
   C     34.00000000    46.60000000    31.00000000
   H     35.99000000    49.06000000    28.13000000
   H     33.25000000    49.98000000    28.35000000
   H     32.62000000    47.82000000    29.33000000
   H     35.35000000    47.26000000    29.55000000
   H     34.27000000    45.83000000    29.02000000
   H     32.60000000    48.10000000    26.79000000
   H     34.18000000    47.30000000    26.85000000
   H     32.66000000    46.48000000    27.34000000
   H     34.63000000    45.80000000    31.40000000
   H     34.16000000    47.39000000    31.73000000
   H     32.93000000    46.40000000    31.04000000
   N     35.59000000    49.78000000    30.48000000
   C     36.14000000    49.89000000    31.81000000
   C     36.93000000    48.66000000    32.24000000
   O     37.69000000    48.01000000    31.52000000
   C     36.93000000    51.18000000    32.01000000
   C     38.30000000    51.20000000    31.34000000
   O     36.21000000    52.24000000    31.43000000
   H     36.24000000    49.50000000    29.75000000
   H     35.27000000    50.05000000    32.45000000
   H     37.07000000    51.32000000    33.09000000
   H     36.31000000    52.98000000    32.04000000
   H     38.87000000    50.31000000    31.57000000
   H     38.35000000    51.38000000    30.26000000
   H     38.85000000    52.03000000    31.78000000
   N     36.61000000    48.32000000    33.49000000
   C     36.93000000    47.11000000    34.21000000
   C     35.71000000    46.31000000    34.68000000
   O     35.89000000    45.11000000    34.85000000
   C     37.95000000    47.42000000    35.30000000
   C     38.40000000    46.19000000    36.08000000
   O     37.51000000    48.27000000    36.34000000
   H     35.92000000    48.92000000    33.92000000
   H     37.44000000    46.36000000    33.61000000
   H     38.89000000    47.80000000    34.89000000
   H     38.25000000    48.18000000    36.94000000
   H     38.52000000    45.29000000    35.49000000
   H     39.33000000    46.51000000    36.55000000
   H     37.74000000    45.97000000    36.93000000
   N     34.56000000    46.97000000    34.78000000
   C     33.35000000    46.33000000    35.26000000
   C     32.12000000    46.53000000    34.40000000
   O     31.98000000    47.59000000    33.78000000
   C     32.94000000    46.78000000    36.66000000
   C     34.01000000    46.64000000    37.74000000
   C     33.48000000    47.03000000    39.12000000
   C     34.60000000    47.09000000    40.16000000
   N     35.28000000    45.80000000    40.35000000
   H     34.53000000    47.98000000    34.67000000
   H     33.54000000    45.26000000    35.38000000
   H     31.97000000    46.38000000    36.96000000
   H     32.77000000    47.85000000    36.60000000
   H     34.81000000    47.36000000    37.53000000
   H     34.33000000    45.60000000    37.81000000
   H     32.77000000    46.30000000    39.52000000
   H     32.91000000    47.95000000    39.12000000
   H     34.19000000    47.47000000    41.09000000
   H     35.41000000    47.78000000    39.90000000
   H     35.76000000    45.43000000    39.54000000
   H     36.04000000    45.91000000    41.01000000
   H     34.59000000    45.16000000    40.73000000
   N     31.27000000    45.50000000    34.43000000
   C     30.17000000    45.57000000    33.49000000
   C     30.53000000    45.38000000    32.02000000
   O     30.28000000    46.29000000    31.24000000
   C     29.05000000    44.61000000    33.86000000
   C     27.77000000    44.53000000    33.01000000
   C     26.90000000    43.34000000    33.37000000
   O     27.17000000    42.17000000    33.05000000
   O     25.92000000    43.52000000    34.12000000
   H     31.45000000    44.68000000    34.99000000
   H     29.72000000    46.55000000    33.62000000
   H     28.68000000    44.98000000    34.81000000
   H     29.40000000    43.60000000    34.09000000
   H     28.15000000    44.46000000    31.99000000
   H     27.21000000    45.45000000    33.19000000
   N     31.14000000    44.28000000    31.56000000
   C     31.63000000    43.17000000    32.35000000
   H     32.54600000    43.46600000    32.86200000
   H     30.87800000    42.88700000    33.08600000
   H     31.83700000    42.32200000    31.69700000
   H     31.47000000    44.37000000    30.62000000
  Ca     32.25000000    56.14000000    18.85000000
   O     34.65000000    55.55000000    17.70000000
   H     34.97000000    56.34000000    17.28000000
   H     35.39000000    55.21000000    18.20000000
   O     33.13000000    58.20000000    17.23000000
   H     34.01000000    58.36000000    16.89000000
   H     32.88000000    59.02000000    17.65000000
   O     31.83000000    58.58000000    19.93000000
   H     31.17000000    59.06000000    20.43000000
   H     32.40000000    59.26000000    19.57000000
   O     30.29000000    55.23000000    20.24000000
   H     29.47000000    55.71000000    20.34000000
   H     30.23000000    54.50000000    20.86000000
   O     30.09000000    56.69000000    17.41000000
   H     29.54000000    57.46000000    17.51000000
   H     29.78000000    56.28000000    16.60000000

Ca 1.00



