%chk=loop3.apoCaM-CA-Ng.Init295.run11.water3.chk
%nprocshared=20
%mem=10GB
%nosave
#b3lyp/svp scf=(tight,noincore,xqc) Test 
#IOP(5/87=12) Density=Current Pop=(MK,readradii) iop(6/33=2) iop(6/42=6)

loop3.apoCaM-CA-Ng.Init295.run11.water3 

   0  1 
   C     96.41000000    31.98000000    70.65000000
   C     96.74000000    32.29000000    72.11000000
   O     95.77000000    32.37000000    72.86000000
   H     95.59600000    32.62500000    70.31700000
   H     97.29000000    32.15900000    70.03200000
   H     96.10700000    30.93700000    70.55900000
   N     97.99000000    32.25000000    72.57000000
   C     98.45000000    32.74000000    73.85000000
   C     99.75000000    33.52000000    73.74000000
   O    100.73000000    33.07000000    73.14000000
   C     98.66000000    31.53000000    74.76000000
   C     98.82000000    32.06000000    76.18000000
   O     97.84000000    31.96000000    76.96000000
   O     99.91000000    32.46000000    76.63000000
   H     98.75000000    32.21000000    71.91000000
   H     97.70000000    33.39000000    74.31000000
   H     99.51000000    30.92000000    74.46000000
   H     97.77000000    30.90000000    74.81000000
   N     99.79000000    34.76000000    74.24000000
   C    100.93000000    35.66000000    74.27000000
   C    102.16000000    35.23000000    75.06000000
   O    103.20000000    35.87000000    74.92000000
   C    100.45000000    37.05000000    74.69000000
   C     99.92000000    37.81000000    73.48000000
   C     99.33000000    39.19000000    73.75000000
   C    100.54000000    40.12000000    73.85000000
   N    100.10000000    41.52000000    74.02000000
   H     99.00000000    35.06000000    74.80000000
   H    101.32000000    35.64000000    73.25000000
   H    101.23000000    37.63000000    75.19000000
   H     99.66000000    36.97000000    75.44000000
   H     99.09000000    37.29000000    73.01000000
   H    100.65000000    37.87000000    72.67000000
   H     98.72000000    39.10000000    74.65000000
   H     98.66000000    39.50000000    72.95000000
   H    101.14000000    40.02000000    72.95000000
   H    101.14000000    39.86000000    74.72000000
   H     99.79000000    41.86000000    73.12000000
   H     99.36000000    41.58000000    74.70000000
   H    100.84000000    42.07000000    74.42000000
   N    102.06000000    34.25000000    75.96000000
   C    103.22000000    33.60000000    76.54000000
   C    103.32000000    32.09000000    76.45000000
   O    104.40000000    31.60000000    76.76000000
   C    103.32000000    34.01000000    78.00000000
   C    102.12000000    33.49000000    78.78000000
   O    101.75000000    32.30000000    78.88000000
   O    101.38000000    34.32000000    79.35000000
   H    101.19000000    33.76000000    76.08000000
   H    104.16000000    33.87000000    76.05000000
   H    103.41000000    35.10000000    78.05000000
   H    104.20000000    33.50000000    78.41000000
   N    102.30000000    31.40000000    75.93000000
   C    102.46000000    30.03000000    75.47000000
   C    101.92000000    28.97000000    76.42000000
   O    101.90000000    27.79000000    76.07000000
   H    101.45000000    31.86000000    75.63000000
   H    103.52000000    29.82000000    75.30000000
   H    101.89000000    29.98000000    74.55000000
   N    101.48000000    29.33000000    77.63000000
   C    100.69000000    28.52000000    78.53000000
   C     99.26000000    29.04000000    78.53000000
   O     99.03000000    30.19000000    78.89000000
   C    101.44000000    28.42000000    79.85000000
   C    100.75000000    27.48000000    80.83000000
   N    101.52000000    26.82000000    81.68000000
   O     99.53000000    27.31000000    80.84000000
   H    101.67000000    30.28000000    77.91000000
   H    100.62000000    27.44000000    78.39000000
   H    101.60000000    29.39000000    80.32000000
   H    102.44000000    28.06000000    79.61000000
   H    102.49000000    27.08000000    81.77000000
   H    101.15000000    26.03000000    82.20000000
   N     98.23000000    28.23000000    78.27000000
   C     96.85000000    28.60000000    78.07000000
   C     96.11000000    29.39000000    79.15000000
   O     95.13000000    30.07000000    78.86000000
   H     98.46000000    27.27000000    78.05000000
   H     96.34000000    27.64000000    77.96000000
   H     96.72000000    29.08000000    77.10000000
   N     96.60000000    29.35000000    80.39000000
   C     96.08000000    30.02000000    81.57000000
   C     96.11000000    31.52000000    81.36000000
   O     96.99000000    32.08000000    80.70000000
   C     96.89000000    29.77000000    82.84000000
   C     97.16000000    28.39000000    83.39000000
   C     98.52000000    28.05000000    83.49000000
   C     96.13000000    27.57000000    83.85000000
   C     98.86000000    26.85000000    84.12000000
   C     96.53000000    26.38000000    84.48000000
   C     97.87000000    26.00000000    84.64000000
   O     98.16000000    24.76000000    85.15000000
   H     97.46000000    28.85000000    80.55000000
   H     95.03000000    29.73000000    81.63000000
   H     96.30000000    30.16000000    83.67000000
   H     97.77000000    30.40000000    82.75000000
   H     99.33000000    28.72000000    83.25000000
   H     95.14000000    27.97000000    84.00000000
   H     99.89000000    26.59000000    84.32000000
   H     95.76000000    25.77000000    84.93000000
   H     97.34000000    24.33000000    85.41000000
   N     95.08000000    32.21000000    81.86000000
   C     94.68000000    33.59000000    81.71000000
   C     95.62000000    34.65000000    82.28000000
   O     96.65000000    34.27000000    82.82000000
   C     94.13000000    34.03000000    80.36000000
   C     93.24000000    32.90000000    79.87000000
   C     95.17000000    34.39000000    79.29000000
   C     92.25000000    33.31000000    78.78000000
   H     94.34000000    31.68000000    82.31000000
   H     93.83000000    33.61000000    82.40000000
   H     93.53000000    34.91000000    80.59000000
   H     92.61000000    32.56000000    80.70000000
   H     93.69000000    31.96000000    79.55000000
   H     94.68000000    34.73000000    78.38000000
   H     95.82000000    35.25000000    79.41000000
   H     95.62000000    33.44000000    79.01000000
   H     91.80000000    34.22000000    79.16000000
   H     92.81000000    33.52000000    77.87000000
   H     91.56000000    32.48000000    78.58000000
   N     95.24000000    35.93000000    82.31000000
   C     96.03000000    37.03000000    82.83000000
   C     95.64000000    37.56000000    84.20000000
   O     96.44000000    38.30000000    84.77000000
   C     96.24000000    38.12000000    81.78000000
   O     94.95000000    38.66000000    81.55000000
   H     94.34000000    36.19000000    81.93000000
   H     97.06000000    36.71000000    82.98000000
   H     96.50000000    37.52000000    80.90000000
   H     97.00000000    38.85000000    82.02000000
   H     95.03000000    39.37000000    80.92000000
   N     94.47000000    37.14000000    84.69000000
   C     94.01000000    37.50000000    86.02000000
   C     94.31000000    38.87000000    86.62000000
   O     94.80000000    38.94000000    87.74000000
   C     94.32000000    36.33000000    86.94000000
   H     93.85000000    36.83000000    83.96000000
   H     92.92000000    37.50000000    85.95000000
   H     93.93000000    36.44000000    87.95000000
   H     93.69000000    35.54000000    86.53000000
   H     95.34000000    35.94000000    86.99000000
   N     94.30000000    39.99000000    85.90000000
   C     93.93000000    40.30000000    84.53000000
   C     92.56000000    40.96000000    84.48000000
   O     92.30000000    41.84000000    85.31000000
   C     95.04000000    41.16000000    83.94000000
   H     94.66000000    40.79000000    86.40000000
   H     93.85000000    39.37000000    83.97000000
   H     96.03000000    40.98000000    84.35000000
   H     95.16000000    40.95000000    82.87000000
   H     94.69000000    42.19000000    83.96000000
   N     91.73000000    40.70000000    83.46000000
   C     91.74000000    39.64000000    82.48000000
   C     90.46000000    38.83000000    82.29000000
   O     90.58000000    37.71000000    81.79000000
   C     92.19000000    40.34000000    81.20000000
   C     91.28000000    41.44000000    80.66000000
   C     91.80000000    41.71000000    79.26000000
   O     91.24000000    41.29000000    78.22000000
   O     92.88000000    42.32000000    79.12000000
   H     90.96000000    41.35000000    83.39000000
   H     92.51000000    38.89000000    82.62000000
   H     92.33000000    39.62000000    80.40000000
   H     93.14000000    40.86000000    81.33000000
   H     91.25000000    42.35000000    81.25000000
   H     90.26000000    41.07000000    80.60000000
   N     89.34000000    39.34000000    82.80000000
   C     88.04000000    38.71000000    82.67000000
   H     87.32500000    39.43100000    82.27400000
   H     88.11300000    37.86100000    81.99000000
   H     87.70300000    38.36500000    83.64800000
   H     89.33000000    40.30000000    83.10000000
  Ca     99.12000000    32.74000000    79.28000000
   O     98.49000000    34.84000000    80.89000000
   H     99.10000000    35.45000000    81.30000000
   H     97.76000000    34.77000000    81.51000000
   O     98.36000000    34.93000000    77.81000000
   H     97.89000000    34.68000000    77.01000000
   H     98.30000000    35.89000000    77.83000000
   O    100.00800000    31.89000000    81.62000000
   H    100.78800000    31.39000000    81.87000000
   H     99.59800000    32.12000000    82.46000000

Ca 1.00



