%chk=loop1.apoCaM-CA-Ng.Init31.run74.water4.chk
%nprocshared=20
%mem=10GB
%nosave
#b3lyp/svp scf=(tight,noincore,xqc) Test 
#IOP(5/87=12) Density=Current Pop=(MK,readradii) iop(6/33=2) iop(6/42=6)

loop1.apoCaM-CA-Ng.Init31.run74.water4 

   0  1 
   C     68.23000000    36.24000000    26.29000000
   C     67.56000000    36.07000000    24.93000000
   O     66.72000000    36.90000000    24.58000000
   H     69.12500000    36.85200000    26.17900000
   H     67.53900000    36.72800000    26.97700000
   H     68.50600000    35.26200000    26.68500000
   N     68.02000000    35.11000000    24.12000000
   C     67.55000000    34.87000000    22.77000000
   C     66.80000000    33.55000000    22.69000000
   O     66.75000000    32.77000000    23.63000000
   C     68.68000000    35.02000000    21.75000000
   C     68.23000000    35.55000000    20.40000000
   O     67.01000000    35.68000000    20.18000000
   O     69.07000000    35.86000000    19.52000000
   H     68.67000000    34.42000000    24.46000000
   H     66.85000000    35.67000000    22.53000000
   H     69.11000000    34.02000000    21.70000000
   H     69.39000000    35.75000000    22.12000000
   N     66.15000000    33.30000000    21.55000000
   C     65.28000000    32.22000000    21.12000000
   C     66.00000000    30.95000000    20.71000000
   O     65.65000000    29.92000000    21.28000000
   C     64.34000000    32.67000000    20.00000000
   C     63.21000000    31.71000000    19.67000000
   C     62.32000000    31.34000000    20.86000000
   C     61.20000000    30.32000000    20.81000000
   N     61.76000000    28.96000000    20.67000000
   H     66.27000000    34.09000000    20.93000000
   H     64.62000000    32.06000000    21.96000000
   H     64.95000000    32.67000000    19.09000000
   H     63.90000000    33.62000000    20.29000000
   H     63.55000000    30.79000000    19.18000000
   H     62.56000000    32.34000000    19.06000000
   H     61.82000000    32.28000000    21.09000000
   H     62.95000000    30.97000000    21.67000000
   H     60.66000000    30.54000000    19.88000000
   H     60.66000000    30.54000000    21.73000000
   H     61.05000000    28.27000000    20.46000000
   H     62.44000000    28.91000000    19.93000000
   H     62.29000000    28.71000000    21.49000000
   N     67.06000000    30.89000000    19.89000000
   C     67.58000000    31.96000000    19.06000000
   C     69.10000000    31.92000000    19.03000000
   O     69.62000000    30.81000000    18.98000000
   C     67.16000000    31.80000000    17.61000000
   C     67.46000000    33.01000000    16.74000000
   O     67.55000000    34.14000000    17.26000000
   O     67.52000000    32.87000000    15.50000000
   H     67.41000000    29.97000000    19.68000000
   H     67.22000000    32.91000000    19.48000000
   H     66.09000000    31.62000000    17.61000000
   H     67.68000000    30.93000000    17.20000000
   N     69.76000000    33.07000000    18.88000000
   C     71.19000000    33.15000000    18.69000000
   C     71.91000000    34.48000000    18.92000000
   O     72.09000000    34.86000000    20.07000000
   H     69.21000000    33.92000000    18.91000000
   H     71.44000000    32.82000000    17.68000000
   H     71.63000000    32.48000000    19.43000000
   N     72.33000000    35.10000000    17.82000000
   C     72.94000000    36.41000000    17.69000000
   C     74.42000000    36.54000000    17.37000000
   O     74.98000000    35.55000000    16.89000000
   C     72.15000000    37.10000000    16.58000000
   C     70.64000000    37.08000000    16.70000000
   O     70.09000000    38.01000000    17.34000000
   O     69.97000000    36.26000000    16.04000000
   H     72.26000000    34.60000000    16.94000000
   H     72.81000000    36.89000000    18.66000000
   H     72.43000000    36.67000000    15.62000000
   H     72.45000000    38.15000000    16.57000000
   N     75.01000000    37.74000000    17.43000000
   C     74.59000000    38.92000000    18.16000000
   C     74.48000000    40.17000000    17.29000000
   O     74.26000000    41.23000000    17.87000000
   H     75.95000000    37.72000000    17.06000000
   H     75.23000000    39.18000000    19.00000000
   H     73.59000000    38.76000000    18.56000000
   N     74.50000000    40.01000000    15.97000000
   C     74.56000000    41.13000000    15.05000000
   C     75.85000000    41.92000000    15.22000000
   O     75.76000000    43.11000000    15.53000000
   C     73.25000000    41.92000000    14.95000000
   C     72.25000000    40.90000000    14.41000000
   O     73.31000000    42.93000000    13.97000000
   H     74.54000000    39.11000000    15.52000000
   H     74.73000000    40.70000000    14.06000000
   H     72.89000000    42.34000000    15.89000000
   H     73.58000000    43.74000000    14.39000000
   H     71.36000000    41.45000000    14.09000000
   H     72.69000000    40.54000000    13.48000000
   H     71.93000000    40.20000000    15.18000000
   N     77.03000000    41.30000000    15.19000000
   C     78.35000000    41.87000000    15.29000000
   C     78.68000000    42.69000000    14.05000000
   O     79.61000000    42.38000000    13.31000000
   C     78.59000000    42.55000000    16.64000000
   C     78.28000000    41.65000000    17.83000000
   C     79.95000000    43.23000000    16.64000000
   C     79.04000000    40.34000000    17.99000000
   H     76.98000000    40.30000000    15.01000000
   H     79.04000000    41.02000000    15.29000000
   H     77.97000000    43.45000000    16.69000000
   H     77.23000000    41.40000000    17.68000000
   H     78.37000000    42.30000000    18.69000000
   H     80.71000000    42.50000000    16.34000000
   H     80.05000000    44.07000000    15.95000000
   H     80.11000000    43.62000000    17.65000000
   H     80.09000000    40.54000000    18.22000000
   H     78.47000000    39.81000000    18.76000000
   H     78.93000000    39.73000000    17.10000000
   N     78.04000000    43.85000000    13.87000000
   C     78.29000000    44.82000000    12.82000000
   C     78.44000000    46.24000000    13.34000000
   O     77.97000000    46.49000000    14.45000000
   C     77.15000000    44.76000000    11.80000000
   C     75.73000000    44.64000000    12.35000000
   O     77.40000000    43.84000000    10.77000000
   H     77.37000000    44.00000000    14.61000000
   H     79.25000000    44.67000000    12.32000000
   H     77.17000000    45.74000000    11.33000000
   H     76.64000000    43.83000000    10.18000000
   H     75.62000000    43.66000000    12.81000000
   H     75.74000000    45.39000000    13.14000000
   H     74.96000000    44.89000000    11.62000000
   N     78.93000000    47.16000000    12.50000000
   C     79.10000000    48.58000000    12.74000000
   C     77.83000000    49.35000000    13.07000000
   O     76.89000000    49.43000000    12.28000000
   C     79.87000000    49.24000000    11.60000000
   C     80.13000000    50.73000000    11.83000000
   O     81.10000000    48.58000000    11.43000000
   H     79.24000000    46.73000000    11.63000000
   H     79.83000000    48.65000000    13.54000000
   H     79.21000000    49.05000000    10.75000000
   H     81.22000000    48.29000000    10.52000000
   H     79.13000000    51.13000000    11.98000000
   H     80.72000000    50.95000000    12.73000000
   H     80.49000000    51.17000000    10.90000000
   N     77.83000000    49.98000000    14.24000000
   C     76.69000000    50.74000000    14.73000000
   C     75.37000000    49.98000000    14.68000000
   O     74.33000000    50.50000000    14.29000000
   C     76.69000000    52.07000000    13.98000000
   C     77.74000000    53.00000000    14.59000000
   C     77.83000000    54.27000000    13.75000000
   C     76.50000000    55.01000000    13.61000000
   N     76.74000000    56.40000000    13.22000000
   H     78.70000000    50.06000000    14.75000000
   H     76.89000000    50.80000000    15.80000000
   H     75.71000000    52.53000000    14.03000000
   H     76.92000000    51.98000000    12.92000000
   H     78.76000000    52.61000000    14.61000000
   H     77.54000000    53.21000000    15.64000000
   H     78.17000000    54.04000000    12.73000000
   H     78.58000000    54.94000000    14.19000000
   H     76.03000000    54.85000000    14.58000000
   H     75.91000000    54.50000000    12.85000000
   H     75.84000000    56.85000000    13.16000000
   H     77.32000000    56.89000000    13.89000000
   H     77.18000000    56.62000000    12.34000000
   N     75.35000000    48.78000000    15.28000000
   C     74.21000000    47.95000000    15.61000000
   C     74.61000000    46.51000000    15.90000000
   O     73.98000000    45.58000000    15.41000000
   C     73.36000000    48.54000000    16.73000000
   C     72.17000000    47.63000000    16.99000000
   C     70.96000000    48.22000000    17.69000000
   O     70.97000000    48.37000000    18.93000000
   O     70.01000000    48.56000000    16.95000000
   H     76.22000000    48.36000000    15.58000000
   H     73.59000000    47.95000000    14.71000000
   H     72.90000000    49.50000000    16.50000000
   H     73.91000000    48.83000000    17.63000000
   H     72.53000000    46.76000000    17.55000000
   H     71.75000000    47.18000000    16.09000000
   N     75.65000000    46.20000000    16.67000000
   C     76.46000000    46.93000000    17.62000000
   H     77.36000000    47.29400000    17.12500000
   H     75.89200000    47.77600000    18.00800000
   H     76.73900000    46.27100000    18.44200000
   H     75.84000000    45.21000000    16.63000000
  Ca     67.58000000    36.69000000    17.42000000
   O     67.30000000    38.59000000    19.24000000
   H     68.00000000    39.23000000    19.36000000
   H     66.49000000    39.11000000    19.28000000
   O     67.25000000    38.56000000    15.67000000
   H     67.71000000    38.60000000    14.83000000
   H     66.85000000    39.42000000    15.77000000
   O     67.21000000    35.64000000    15.05000000
   H     67.21000000    35.75000000    14.10000000
   H     67.50000000    34.73000000    15.17000000
   O     64.90000000    36.48000000    17.35000000
   H     64.18000000    36.91000000    17.80000000
   H     64.49000000    35.83000000    16.78000000

Ca 1.00



