%chk=loop2.apoCaM-CA-Ng.Init293.run93.water4.chk
%nprocshared=20
%mem=10GB
%nosave
#b3lyp/svp scf=(tight,noincore,xqc) Test 
#IOP(5/87=12) Density=Current Pop=(MK,readradii) iop(6/33=2) iop(6/42=6)

loop2.apoCaM-CA-Ng.Init293.run93.water4 

   -2  1 
   C     78.66000000    99.83000000     4.57000000
   C     78.70000000   101.35000000     4.45000000
   O     79.54000000   101.94000000     5.12000000
   H     77.69700000    99.46300000     4.21600000
   H     79.45700000    99.39600000     3.96700000
   H     78.79600000    99.54400000     5.61300000
   N     77.84000000   102.00000000     3.66000000
   C     77.92000000   103.42000000     3.38000000
   C     76.59000000   104.12000000     3.11000000
   O     76.18000000   104.96000000     3.91000000
   C     79.03000000   103.65000000     2.36000000
   C     79.51000000   105.09000000     2.27000000
   O     79.94000000   105.43000000     1.14000000
   O     79.40000000   105.91000000     3.20000000
   H     77.10000000   101.45000000     3.24000000
   H     78.26000000   103.76000000     4.36000000
   H     78.69000000   103.30000000     1.39000000
   H     79.93000000   103.06000000     2.54000000
   N     75.93000000   103.73000000     2.02000000
   C     74.63000000   104.11000000     1.51000000
   C     73.51000000   103.97000000     2.54000000
   O     72.49000000   104.66000000     2.48000000
   C     74.77000000   105.41000000     0.73000000
   H     76.37000000   103.01000000     1.46000000
   H     74.46000000   103.34000000     0.76000000
   H     75.19000000   106.21000000     1.33000000
   H     75.37000000   105.23000000    -0.16000000
   H     73.87000000   105.88000000     0.34000000
   N     73.75000000   103.04000000     3.46000000
   C     72.86000000   102.79000000     4.57000000
   C     72.59000000   104.01000000     5.45000000
   O     71.53000000   104.17000000     6.05000000
   C     71.58000000   102.03000000     4.23000000
   C     71.83000000   100.67000000     3.59000000
   O     71.41000000   100.53000000     2.41000000
   O     72.55000000    99.85000000     4.18000000
   H     74.58000000   102.46000000     3.39000000
   H     73.39000000   102.13000000     5.26000000
   H     70.87000000   102.62000000     3.65000000
   H     71.11000000   101.87000000     5.20000000
   N     73.59000000   104.90000000     5.54000000
   C     73.49000000   106.02000000     6.45000000
   C     73.50000000   105.71000000     7.94000000
   O     73.89000000   104.62000000     8.33000000
   H     74.42000000   104.69000000     5.02000000
   H     72.54000000   106.52000000     6.24000000
   H     74.28000000   106.72000000     6.18000000
   N     73.11000000   106.68000000     8.77000000
   C     73.05000000   106.70000000    10.22000000
   C     74.28000000   106.04000000    10.82000000
   O     74.27000000   105.20000000    11.72000000
   C     71.76000000   105.98000000    10.60000000
   C     70.61000000   106.88000000    10.17000000
   N     70.53000000   108.08000000    10.73000000
   O     69.75000000   106.56000000     9.35000000
   H     72.99000000   107.56000000     8.28000000
   H     73.02000000   107.73000000    10.58000000
   H     71.81000000   105.88000000    11.68000000
   H     71.71000000   105.01000000    10.10000000
   H     71.14000000   108.26000000    11.52000000
   H     69.70000000   108.66000000    10.66000000
   N     75.43000000   106.50000000    10.32000000
   C     76.77000000   106.33000000    10.84000000
   C     77.70000000   105.28000000    10.24000000
   O     78.89000000   105.28000000    10.55000000
   H     75.40000000   107.02000000     9.46000000
   H     76.82000000   106.13000000    11.91000000
   H     77.28000000   107.27000000    10.63000000
   N     77.17000000   104.30000000     9.51000000
   C     77.89000000   103.11000000     9.10000000
   C     77.31000000   101.90000000     9.81000000
   O     76.15000000   101.99000000    10.20000000
   C     77.93000000   102.98000000     7.58000000
   C     76.52000000   103.16000000     7.02000000
   O     78.72000000   104.02000000     7.05000000
   H     76.16000000   104.29000000     9.58000000
   H     78.94000000   103.23000000     9.35000000
   H     78.35000000   102.00000000     7.32000000
   H     79.29000000   103.65000000     6.37000000
   H     76.55000000   102.97000000     5.95000000
   H     75.81000000   102.44000000     7.43000000
   H     76.20000000   104.18000000     7.25000000
   N     78.00000000   100.75000000     9.85000000
   C     77.45000000    99.54000000    10.43000000
   C     76.34000000    98.93000000     9.59000000
   O     76.51000000    98.80000000     8.38000000
   C     78.54000000    98.56000000    10.87000000
   C     79.47000000    98.01000000     9.80000000
   C     79.36000000    99.25000000    11.96000000
   C     80.60000000    97.06000000    10.19000000
   H     79.01000000   100.79000000     9.79000000
   H     77.00000000    99.77000000    11.39000000
   H     78.10000000    97.65000000    11.28000000
   H     80.05000000    98.70000000     9.18000000
   H     78.88000000    97.42000000     9.09000000
   H     80.01000000   100.02000000    11.53000000
   H     78.67000000    99.56000000    12.74000000
   H     80.01000000    98.57000000    12.50000000
   H     80.27000000    96.23000000    10.82000000
   H     81.06000000    96.71000000     9.27000000
   H     81.41000000    97.59000000    10.67000000
   N     75.18000000    98.67000000    10.19000000
   C     73.87000000    98.50000000     9.60000000
   C     72.77000000    98.61000000    10.65000000
   O     73.04000000    98.19000000    11.77000000
   C     73.73000000    97.19000000     8.81000000
   C     72.87000000    97.28000000     7.56000000
   O     73.16000000    98.09000000     6.65000000
   O     71.86000000    96.57000000     7.37000000
   H     75.21000000    98.58000000    11.20000000
   H     73.72000000    99.34000000     8.92000000
   H     73.33000000    96.44000000     9.49000000
   H     74.69000000    96.87000000     8.40000000
   N     71.57000000    99.03000000    10.25000000
   C     70.45000000    99.10000000    11.16000000
   C     69.80000000   100.45000000    11.41000000
   O     68.81000000   100.84000000    10.80000000
   C     69.44000000    98.09000000    10.64000000
   C     68.16000000    98.12000000    11.44000000
   C     66.94000000    98.53000000    10.89000000
   C     68.24000000    97.72000000    12.78000000
   C     65.76000000    98.37000000    11.63000000
   C     67.07000000    97.65000000    13.54000000
   C     65.83000000    97.91000000    12.95000000
   H     71.53000000    99.46000000     9.33000000
   H     70.67000000    98.57000000    12.09000000
   H     69.81000000    97.07000000    10.67000000
   H     69.23000000    98.24000000     9.57000000
   H     66.97000000    98.81000000     9.84000000
   H     69.16000000    97.45000000    13.28000000
   H     64.82000000    98.55000000    11.13000000
   H     67.11000000    97.56000000    14.62000000
   H     64.92000000    97.72000000    13.50000000
   N     70.39000000   101.27000000    12.28000000
   C     71.63000000   101.01000000    12.99000000
   C     71.53000000   100.21000000    14.28000000
   O     70.66000000   100.49000000    15.11000000
   C     72.30000000   102.35000000    13.25000000
   C     71.05000000   103.20000000    13.48000000
   C     69.98000000   102.63000000    12.56000000
   H     72.33000000   100.38000000    12.44000000
   H     72.93000000   102.27000000    14.14000000
   H     72.99000000   102.58000000    12.44000000
   H     70.63000000   103.09000000    14.48000000
   H     71.31000000   104.19000000    13.11000000
   H     68.99000000   102.56000000    13.01000000
   H     70.02000000   103.19000000    11.62000000
   N     72.27000000    99.10000000    14.35000000
   C     72.27000000    98.19000000    15.49000000
   C     73.67000000    97.59000000    15.50000000
   O     74.25000000    97.32000000    14.45000000
   C     71.15000000    97.17000000    15.36000000
   C     71.11000000    96.22000000    16.55000000
   C     71.11000000    96.88000000    17.93000000
   O     72.15000000    96.80000000    18.61000000
   O     70.07000000    97.48000000    18.26000000
   H     73.00000000    98.89000000    13.69000000
   H     72.09000000    98.69000000    16.44000000
   H     71.16000000    96.68000000    14.38000000
   H     70.19000000    97.68000000    15.43000000
   H     71.95000000    95.53000000    16.57000000
   H     70.28000000    95.55000000    16.33000000
   N     74.14000000    97.10000000    16.65000000
   C     75.30000000    96.24000000    16.80000000
   H     76.12000000    96.81000000    17.23700000
   H     75.05100000    95.40400000    17.45400000
   H     75.60100000    95.86100000    15.82300000
   H     73.60000000    97.31000000    17.47000000
  Ca     72.90000000    97.22000000     4.22000000
   O     71.26000000    95.20000000     3.45000000
   H     70.61000000    95.32000000     2.77000000
   H     70.77000000    94.84000000     4.19000000
   O     71.63000000    97.90000000     1.79000000
   H     71.70000000    98.85000000     1.85000000
   H     70.93000000    97.75000000     1.14000000
   O     70.37000000    97.67000000     5.10000000
   H     70.13000000    97.52000000     6.02000000
   H     69.53000000    97.81000000     4.66000000
   O     74.19000000    95.12000000     5.46000000
   H     73.97000000    94.21000000     5.27000000
   H     75.10000000    95.10000000     5.75000000

Ca 1.00



