%chk=loop1.apoCaM-CA-Ng.Init295.run4.water5.chk
%nprocshared=20
%mem=10GB
%nosave
#b3lyp/svp scf=(tight,noincore,xqc) Test 
#IOP(5/87=12) Density=Current Pop=(MK,readradii) iop(6/33=2) iop(6/42=6)

loop1.apoCaM-CA-Ng.Init295.run4.water5 

   0  1 
   C     34.32000000    34.65000000    21.13000000
   C     35.00000000    35.90000000    20.60000000
   O     35.90000000    35.78000000    19.78000000
   H     33.34100000    34.54400000    20.66300000
   H     34.93000000    33.77700000    20.89700000
   H     34.20000000    34.73100000    22.21000000
   N     34.43000000    37.07000000    20.90000000
   C     34.79000000    38.39000000    20.41000000
   C     34.58000000    38.68000000    18.93000000
   O     35.26000000    39.53000000    18.37000000
   C     36.19000000    38.67000000    20.95000000
   C     36.55000000    40.15000000    21.00000000
   O     35.68000000    40.95000000    21.43000000
   O     37.76000000    40.45000000    20.92000000
   H     33.70000000    37.12000000    21.59000000
   H     34.16000000    39.10000000    20.95000000
   H     36.93000000    38.04000000    20.46000000
   H     36.31000000    38.27000000    21.95000000
   N     33.72000000    37.94000000    18.22000000
   C     33.56000000    37.94000000    16.78000000
   C     33.13000000    39.28000000    16.22000000
   O     33.28000000    39.49000000    15.02000000
   C     32.73000000    36.81000000    16.19000000
   C     33.25000000    35.39000000    16.44000000
   C     32.19000000    34.31000000    16.21000000
   C     32.83000000    33.02000000    16.71000000
   N     32.07000000    31.84000000    16.27000000
   H     33.05000000    37.40000000    18.75000000
   H     34.56000000    37.75000000    16.38000000
   H     32.67000000    36.92000000    15.11000000
   H     31.75000000    36.91000000    16.67000000
   H     33.53000000    35.30000000    17.49000000
   H     34.12000000    35.18000000    15.82000000
   H     32.04000000    34.29000000    15.13000000
   H     31.26000000    34.64000000    16.67000000
   H     32.82000000    32.99000000    17.80000000
   H     33.87000000    33.01000000    16.38000000
   H     32.20000000    31.64000000    15.29000000
   H     32.33000000    31.05000000    16.84000000
   H     31.10000000    32.07000000    16.41000000
   N     32.66000000    40.21000000    17.06000000
   C     32.25000000    41.54000000    16.64000000
   C     32.67000000    42.56000000    17.69000000
   O     32.98000000    43.70000000    17.37000000
   C     30.73000000    41.57000000    16.49000000
   C     30.12000000    42.95000000    16.25000000
   O     29.00000000    43.25000000    16.70000000
   O     30.78000000    43.75000000    15.56000000
   H     32.74000000    39.98000000    18.04000000
   H     32.71000000    41.77000000    15.68000000
   H     30.31000000    41.24000000    17.43000000
   H     30.35000000    40.95000000    15.68000000
   N     32.49000000    42.21000000    18.97000000
   C     33.02000000    42.91000000    20.11000000
   C     32.24000000    44.11000000    20.65000000
   O     32.74000000    44.85000000    21.50000000
   H     32.05000000    41.33000000    19.22000000
   H     34.08000000    43.11000000    20.00000000
   H     32.92000000    42.25000000    20.97000000
   N     31.00000000    44.32000000    20.22000000
   C     30.09000000    45.38000000    20.60000000
   C     29.21000000    45.02000000    21.79000000
   O     28.70000000    43.91000000    21.82000000
   C     29.38000000    45.93000000    19.36000000
   C     30.23000000    46.41000000    18.20000000
   O     31.47000000    46.30000000    18.26000000
   O     29.74000000    46.50000000    17.05000000
   H     30.69000000    43.72000000    19.47000000
   H     30.73000000    46.17000000    21.00000000
   H     28.75000000    46.78000000    19.61000000
   H     28.83000000    45.06000000    18.99000000
   N     29.08000000    45.93000000    22.77000000
   C     28.33000000    45.78000000    23.99000000
   C     28.94000000    44.83000000    25.02000000
   O     28.98000000    45.14000000    26.21000000
   H     29.54000000    46.81000000    22.57000000
   H     27.25000000    45.70000000    23.86000000
   H     28.39000000    46.74000000    24.50000000
   N     29.47000000    43.69000000    24.58000000
   C     30.22000000    42.79000000    25.43000000
   C     29.42000000    42.17000000    26.56000000
   O     28.22000000    41.94000000    26.41000000
   C     30.79000000    41.65000000    24.58000000
   C     31.47000000    42.10000000    23.29000000
   O     31.83000000    41.09000000    25.35000000
   H     29.49000000    43.51000000    23.58000000
   H     31.08000000    43.33000000    25.83000000
   H     30.00000000    40.92000000    24.42000000
   H     32.58000000    40.95000000    24.77000000
   H     31.92000000    41.22000000    22.84000000
   H     30.78000000    42.46000000    22.53000000
   H     32.26000000    42.84000000    23.42000000
   N     30.12000000    41.79000000    27.63000000
   C     29.68000000    41.18000000    28.87000000
   C     30.22000000    41.74000000    30.17000000
   O     29.57000000    41.45000000    31.17000000
   C     30.06000000    39.70000000    28.73000000
   C     31.53000000    39.30000000    28.70000000
   C     29.08000000    39.02000000    27.77000000
   C     31.76000000    37.81000000    28.48000000
   H     31.11000000    41.93000000    27.44000000
   H     28.61000000    41.37000000    28.89000000
   H     29.71000000    39.20000000    29.63000000
   H     31.99000000    39.61000000    29.64000000
   H     32.02000000    39.85000000    27.89000000
   H     28.05000000    39.37000000    27.87000000
   H     29.45000000    39.25000000    26.77000000
   H     29.02000000    37.94000000    27.85000000
   H     31.30000000    37.41000000    27.58000000
   H     32.81000000    37.53000000    28.38000000
   H     31.36000000    37.29000000    29.35000000
   N     31.32000000    42.49000000    30.14000000
   C     31.76000000    43.37000000    31.21000000
   C     33.21000000    43.04000000    31.50000000
   O     34.00000000    42.62000000    30.65000000
   C     31.44000000    44.82000000    30.87000000
   C     31.98000000    45.30000000    29.52000000
   O     30.06000000    45.08000000    30.73000000
   H     31.83000000    42.65000000    29.29000000
   H     31.15000000    43.14000000    32.09000000
   H     31.90000000    45.46000000    31.62000000
   H     29.97000000    45.98000000    30.41000000
   H     31.89000000    46.38000000    29.38000000
   H     33.06000000    45.18000000    29.49000000
   H     31.46000000    44.90000000    28.65000000
   N     33.65000000    43.32000000    32.73000000
   C     34.95000000    42.96000000    33.26000000
   C     34.86000000    42.22000000    34.59000000
   O     35.61000000    41.25000000    34.71000000
   C     35.79000000    44.23000000    33.38000000
   C     37.23000000    44.08000000    33.87000000
   O     35.15000000    45.22000000    34.14000000
   H     33.08000000    43.81000000    33.41000000
   H     35.37000000    42.24000000    32.56000000
   H     35.81000000    44.62000000    32.36000000
   H     34.81000000    45.78000000    33.45000000
   H     37.71000000    43.36000000    33.20000000
   H     37.83000000    44.99000000    33.87000000
   H     37.21000000    43.63000000    34.86000000
   N     34.07000000    42.64000000    35.58000000
   C     33.99000000    42.19000000    36.95000000
   C     32.60000000    41.66000000    37.27000000
   O     31.62000000    42.36000000    37.04000000
   C     34.48000000    43.37000000    37.79000000
   C     34.53000000    43.09000000    39.28000000
   C     35.20000000    44.13000000    40.18000000
   C     34.19000000    45.23000000    40.47000000
   N     34.78000000    46.25000000    41.35000000
   H     33.58000000    43.50000000    35.36000000
   H     34.61000000    41.30000000    37.03000000
   H     33.75000000    44.17000000    37.64000000
   H     35.48000000    43.69000000    37.50000000
   H     35.06000000    42.15000000    39.42000000
   H     33.53000000    42.82000000    39.63000000
   H     36.09000000    44.56000000    39.73000000
   H     35.50000000    43.65000000    41.11000000
   H     33.34000000    44.74000000    40.95000000
   H     33.80000000    45.73000000    39.58000000
   H     35.16000000    45.81000000    42.18000000
   H     35.54000000    46.70000000    40.88000000
   H     34.02000000    46.87000000    41.57000000
   N     32.52000000    40.40000000    37.73000000
   C     31.28000000    39.79000000    38.15000000
   C     30.39000000    39.34000000    37.00000000
   O     29.22000000    39.72000000    37.06000000
   C     31.51000000    38.78000000    39.28000000
   C     30.16000000    38.50000000    39.94000000
   C     30.30000000    37.84000000    41.31000000
   O     30.86000000    38.46000000    42.23000000
   O     29.95000000    36.64000000    41.39000000
   H     33.42000000    40.06000000    38.03000000
   H     30.75000000    40.62000000    38.61000000
   H     32.18000000    39.22000000    40.01000000
   H     31.89000000    37.89000000    38.78000000
   H     29.49000000    38.00000000    39.24000000
   H     29.66000000    39.43000000    40.18000000
   N     30.79000000    38.50000000    36.04000000
   C     31.97000000    37.67000000    36.10000000
   H     32.77800000    38.22200000    36.58100000
   H     31.75300000    36.77000000    36.67500000
   H     32.27200000    37.39300000    35.09000000
   H     30.14000000    38.24000000    35.31000000
  Ca     32.13000000    45.85000000    15.74000000
   O     33.69000000    47.68000000    17.08000000
   H     33.33000000    47.90000000    17.93000000
   H     34.45000000    48.26000000    16.98000000
   O     30.76000000    48.16000000    15.24000000
   H     30.79000000    48.63000000    14.40000000
   H     29.83000000    48.16000000    15.48000000
   O     33.93000000    47.18000000    14.33000000
   H     33.93000000    47.05000000    13.38000000
   H     34.67000000    47.76000000    14.49000000
   O     34.03000000    44.15000000    14.63000000
   H     34.01000000    43.81000000    13.73000000
   H     34.90000000    43.90000000    14.96000000
   O     31.34000000    45.78000000    13.04000000
   H     31.34000000    46.58000000    12.51000000
   H     31.25000000    45.07000000    12.41000000

Ca 1.00



