%chk=loop4.holoCaM-CaMKII.run65.water2.chk
%nprocshared=20
%mem=10GB
%nosave
#b3lyp/svp scf=(tight,noincore,xqc) Test 
#IOP(5/87=12) Density=Current Pop=(MK,readradii) iop(6/33=2) iop(6/42=6)

loop4.holoCaM-CaMKII.run65.water2 

   -3  1 
   C     36.76000000    48.41000000    89.75100000
   C     36.68000000    47.26000000    88.76100000
   O     36.52000000    46.09000000    89.11100000
   H     37.24900000    49.26200000    89.27800000
   H     35.75400000    48.69400000    90.06100000
   H     37.33500000    48.10000000    90.62300000
   N     36.91000000    47.63000000    87.50100000
   C     37.02000000    46.73000000    86.37100000
   C     38.44000000    46.28000000    86.05100000
   O     39.24000000    47.11000000    85.62100000
   C     36.21000000    47.23000000    85.18100000
   C     36.31000000    46.50000000    83.85100000
   O     36.50000000    47.23000000    82.85100000
   O     36.46000000    45.26000000    83.85100000
   H     36.93000000    48.63000000    87.40100000
   H     36.57000000    45.80000000    86.70100000
   H     36.42000000    48.30000000    85.18100000
   H     35.18000000    47.03000000    85.48100000
   N     38.70000000    44.98000000    86.16100000
   C     40.07000000    44.49000000    86.12100000
   C     40.61000000    44.19000000    84.73100000
   O     41.83000000    44.12000000    84.57100000
   C     40.37000000    43.33000000    87.07100000
   C     39.81000000    42.01000000    86.57100000
   C     39.97000000    43.78000000    88.47100000
   C     40.34000000    40.82000000    87.38100000
   H     37.94000000    44.41000000    86.49100000
   H     40.65000000    45.34000000    86.46100000
   H     41.46000000    43.24000000    87.02100000
   H     40.08000000    41.88000000    85.53100000
   H     38.72000000    42.04000000    86.65100000
   H     40.25000000    44.83000000    88.54100000
   H     38.88000000    43.75000000    88.52100000
   H     40.30000000    43.19000000    89.33100000
   H     41.40000000    40.69000000    87.16100000
   H     40.16000000    40.92000000    88.45100000
   H     39.73000000    39.97000000    87.08100000
   N     39.68000000    43.90000000    83.82100000
   C     39.92000000    43.25000000    82.55100000
   C     39.31000000    44.02000000    81.40100000
   O     39.53000000    43.63000000    80.26100000
   C     39.51000000    41.78000000    82.49100000
   C     38.07000000    41.46000000    82.87100000
   O     37.22000000    42.34000000    83.09100000
   O     37.77000000    40.24000000    82.90100000
   H     38.72000000    43.83000000    84.12100000
   H     40.98000000    43.34000000    82.33100000
   H     40.11000000    41.16000000    83.16100000
   H     39.71000000    41.43000000    81.48100000
   N     38.65000000    45.17000000    81.62100000
   C     38.46000000    46.16000000    80.59100000
   C     37.27000000    45.93000000    79.67100000
   O     37.39000000    46.09000000    78.45100000
   H     38.36000000    45.39000000    82.56100000
   H     39.30000000    46.15000000    79.90100000
   H     38.31000000    47.15000000    81.03100000
   N     36.11000000    45.53000000    80.20100000
   C     34.87000000    45.19000000    79.53100000
   C     33.87000000    46.26000000    79.95100000
   O     32.75000000    46.20000000    79.46100000
   C     34.49000000    43.75000000    79.83100000
   C     34.38000000    43.43000000    81.31100000
   O     34.32000000    42.27000000    81.76100000
   O     34.20000000    44.35000000    82.14100000
   H     36.01000000    45.77000000    81.18100000
   H     35.09000000    45.25000000    78.46100000
   H     35.33000000    43.17000000    79.44100000
   H     33.53000000    43.56000000    79.33100000
   N     34.22000000    47.28000000    80.73100000
   C     33.35000000    48.33000000    81.24100000
   C     32.56000000    48.02000000    82.50100000
   O     31.80000000    48.90000000    82.90100000
   H     35.11000000    47.34000000    81.19100000
   H     32.72000000    48.59000000    80.39100000
   H     33.94000000    49.24000000    81.41100000
   N     32.50000000    46.76000000    82.95100000
   C     31.55000000    46.33000000    83.96100000
   C     32.18000000    45.50000000    85.07100000
   O     33.35000000    45.11000000    85.04100000
   C     30.35000000    45.60000000    83.37100000
   C     29.43000000    46.33000000    82.40100000
   C     28.03000000    45.74000000    82.54100000
   N     27.83000000    44.45000000    82.25100000
   O     27.07000000    46.45000000    82.85100000
   H     33.11000000    46.09000000    82.51100000
   H     31.21000000    47.27000000    84.41100000
   H     29.81000000    45.18000000    84.22100000
   H     30.81000000    44.75000000    82.86100000
   H     29.88000000    46.26000000    81.41100000
   H     29.44000000    47.39000000    82.66100000
   H     28.67000000    43.98000000    81.94100000
   H     26.96000000    43.95000000    82.28100000
   N     31.44000000    45.26000000    86.15100000
   C     31.78000000    44.72000000    87.46100000
   C     30.91000000    43.51000000    87.78100000
   O     29.72000000    43.62000000    88.04100000
   C     31.79000000    45.77000000    88.56100000
   C     32.09000000    45.21000000    89.95100000
   C     32.76000000    46.91000000    88.27100000
   H     30.50000000    45.60000000    86.03100000
   H     32.78000000    44.30000000    87.50100000
   H     30.80000000    46.22000000    88.60100000
   H     31.44000000    44.36000000    90.16100000
   H     33.13000000    44.87000000    90.02100000
   H     31.89000000    46.00000000    90.67100000
   H     33.79000000    46.65000000    88.04100000
   H     32.33000000    47.39000000    87.38100000
   H     32.72000000    47.62000000    89.09100000
   N     31.53000000    42.33000000    87.91100000
   C     30.92000000    41.12000000    88.42100000
   C     31.38000000    40.82000000    89.84100000
   O     32.24000000    41.49000000    90.41100000
   C     31.20000000    40.05000000    87.36100000
   C     32.38000000    39.16000000    87.71100000
   N     33.59000000    39.60000000    87.36100000
   O     32.22000000    38.09000000    88.30100000
   H     32.50000000    42.20000000    87.64100000
   H     29.84000000    41.24000000    88.44100000
   H     31.30000000    40.47000000    86.36100000
   H     30.29000000    39.46000000    87.23100000
   H     33.85000000    40.51000000    87.00100000
   H     34.39000000    38.99000000    87.39100000
   N     30.81000000    39.77000000    90.44100000
   C     30.99000000    39.30000000    91.80100000
   C     32.47000000    39.06000000    92.09100000
   O     32.87000000    39.47000000    93.18100000
   C     30.26000000    37.97000000    91.93100000
   C     30.06000000    37.67000000    93.39100000
   C     29.07000000    38.40000000    94.06100000
   C     30.86000000    36.78000000    94.12100000
   C     28.88000000    38.18000000    95.43100000
   C     30.68000000    36.49000000    95.48100000
   C     29.67000000    37.23000000    96.12100000
   O     29.47000000    37.11000000    97.47100000
   H     30.17000000    39.16000000    89.96100000
   H     30.54000000    40.07000000    92.43100000
   H     30.74000000    37.12000000    91.45100000
   H     29.22000000    38.06000000    91.61100000
   H     28.51000000    39.20000000    93.59100000
   H     31.61000000    36.18000000    93.62100000
   H     28.24000000    38.83000000    96.00100000
   H     31.39000000    35.91000000    96.05100000
   H     30.15000000    36.56000000    97.87100000
   N     33.23000000    38.66000000    91.07100000
   C     34.61000000    38.34000000    91.38100000
   C     35.42000000    39.63000000    91.44100000
   O     36.43000000    39.69000000    92.13100000
   C     35.05000000    37.30000000    90.35100000
   C     36.55000000    37.01000000    90.25100000
   C     36.90000000    35.97000000    89.20100000
   O     37.24000000    34.84000000    89.62100000
   O     36.82000000    36.28000000    87.99100000
   H     32.91000000    38.22000000    90.23100000
   H     34.70000000    37.93000000    92.38100000
   H     34.68000000    37.66000000    89.39100000
   H     34.54000000    36.33000000    90.37100000
   H     36.73000000    36.73000000    91.29100000
   H     37.09000000    37.91000000    90.00100000
   N     34.93000000    40.72000000    90.85100000
   C     35.57000000    42.02000000    90.76100000
   C     35.22000000    42.83000000    92.00100000
   O     36.06000000    43.48000000    92.62100000
   C     35.24000000    42.73000000    89.45100000
   C     35.97000000    41.97000000    88.35100000
   C     35.51000000    42.55000000    87.02100000
   O     36.28000000    43.25000000    86.33100000
   O     34.34000000    42.34000000    86.64100000
   H     33.98000000    40.76000000    90.50100000
   H     36.64000000    41.82000000    90.81100000
   H     35.70000000    43.71000000    89.36100000
   H     34.18000000    42.82000000    89.20100000
   H     35.66000000    40.93000000    88.39100000
   H     37.05000000    42.10000000    88.40100000
   N     33.98000000    42.66000000    92.48100000
   C     33.36000000    43.25000000    93.64100000
   H     32.35100000    42.85300000    93.75500000
   H     33.94600000    43.01100000    94.52800000
   H     33.31200000    44.33200000    93.51700000
   H     33.30000000    42.21000000    91.88100000
  Ca     34.96000000    43.23000000    84.18000000
   O     35.36000000    40.64000000    84.26000000
   H     35.25000000    39.71000000    84.46000000
   H     36.25000000    40.71000000    83.92000000
   O     32.46000000    42.20000000    84.26000000
   H     32.74000000    41.42000000    83.78000000
   H     31.54000000    42.04000000    84.47000000

Ca 1.00



