%chk=loop4.holoCaM.run11.water1.chk
%nprocshared=20
%mem=10GB
%nosave
#b3lyp/svp scf=(tight,noincore,xqc) Test 
#IOP(5/87=12) Density=Current Pop=(MK,readradii) iop(6/33=2) iop(6/42=6)

loop4.holoCaM.run11.water1 

   -3  1 
   C     36.45000000    34.89000000    30.22000000
   C     37.43000000    33.72000000    30.30000000
   O     38.01000000    33.38000000    29.27000000
   H     35.53700000    34.63600000    30.75800000
   H     36.90200000    35.77400000    30.66900000
   H     36.21100000    35.09400000    29.17600000
   N     37.59000000    33.09000000    31.46000000
   C     38.48000000    31.98000000    31.78000000
   C     37.73000000    30.67000000    31.60000000
   O     36.72000000    30.44000000    32.26000000
   C     39.20000000    32.04000000    33.12000000
   C     40.08000000    30.84000000    33.43000000
   O     40.50000000    30.10000000    32.52000000
   O     40.48000000    30.70000000    34.61000000
   H     37.04000000    33.50000000    32.20000000
   H     39.27000000    32.05000000    31.03000000
   H     38.34000000    32.04000000    33.79000000
   H     39.89000000    32.87000000    33.27000000
   N     38.12000000    29.93000000    30.56000000
   C     37.40000000    28.76000000    30.08000000
   C     37.83000000    27.64000000    31.01000000
   O     37.01000000    26.81000000    31.42000000
   C     37.71000000    28.52000000    28.61000000
   C     36.88000000    29.33000000    27.62000000
   C     37.49000000    27.07000000    28.20000000
   C     36.77000000    30.84000000    27.86000000
   H     38.83000000    30.35000000    29.98000000
   H     36.33000000    28.91000000    30.21000000
   H     38.75000000    28.75000000    28.41000000
   H     35.87000000    28.94000000    27.73000000
   H     37.26000000    29.20000000    26.60000000
   H     36.51000000    26.71000000    28.52000000
   H     37.58000000    26.97000000    27.12000000
   H     38.32000000    26.48000000    28.58000000
   H     36.46000000    31.11000000    28.86000000
   H     37.74000000    31.33000000    27.77000000
   H     36.18000000    31.30000000    27.07000000
   N     39.09000000    27.51000000    31.44000000
   C     39.64000000    26.32000000    32.06000000
   C     39.77000000    26.36000000    33.58000000
   O     40.03000000    25.30000000    34.14000000
   C     40.95000000    25.91000000    31.40000000
   C     41.92000000    27.02000000    31.01000000
   O     42.64000000    27.47000000    31.93000000
   O     41.62000000    27.76000000    30.05000000
   H     39.72000000    28.26000000    31.22000000
   H     38.94000000    25.49000000    31.93000000
   H     40.53000000    25.53000000    30.47000000
   H     41.41000000    25.06000000    31.91000000
   N     39.67000000    27.52000000    34.24000000
   C     40.05000000    27.68000000    35.63000000
   C     41.56000000    27.52000000    35.77000000
   O     42.08000000    26.45000000    36.08000000
   H     39.55000000    28.39000000    33.75000000
   H     39.57000000    26.92000000    36.24000000
   H     39.82000000    28.66000000    36.06000000
   N     42.26000000    28.60000000    35.43000000
   C     43.49000000    29.05000000    36.04000000
   C     43.59000000    30.54000000    36.34000000
   O     44.68000000    31.06000000    36.56000000
   C     44.71000000    28.63000000    35.22000000
   C     44.81000000    29.13000000    33.78000000
   O     43.90000000    29.87000000    33.35000000
   O     45.82000000    28.90000000    33.09000000
   H     41.69000000    29.27000000    34.94000000
   H     43.47000000    28.60000000    37.03000000
   H     44.59000000    27.55000000    35.17000000
   H     45.67000000    28.87000000    35.68000000
   N     42.49000000    31.29000000    36.25000000
   C     42.40000000    32.73000000    36.39000000
   C     43.20000000    33.65000000    35.49000000
   O     43.52000000    34.76000000    35.91000000
   H     41.68000000    30.87000000    35.80000000
   H     42.72000000    32.95000000    37.41000000
   H     41.36000000    32.90000000    36.14000000
   N     43.55000000    33.23000000    34.27000000
   C     44.14000000    34.08000000    33.25000000
   C     43.55000000    33.73000000    31.88000000
   O     43.14000000    32.59000000    31.71000000
   C     45.66000000    33.94000000    33.24000000
   C     46.16000000    32.50000000    33.20000000
   C     47.63000000    32.32000000    33.53000000
   N     48.15000000    31.10000000    33.68000000
   O     48.36000000    33.28000000    33.81000000
   H     43.21000000    32.34000000    33.95000000
   H     43.94000000    35.13000000    33.46000000
   H     46.00000000    34.41000000    34.16000000
   H     45.99000000    34.47000000    32.35000000
   H     45.88000000    32.10000000    32.22000000
   H     45.53000000    31.95000000    33.90000000
   H     47.51000000    30.34000000    33.52000000
   H     49.07000000    31.01000000    34.08000000
   N     43.60000000    34.62000000    30.88000000
   C     43.07000000    34.41000000    29.55000000
   C     44.23000000    34.41000000    28.56000000
   O     45.02000000    35.35000000    28.56000000
   C     41.95000000    35.35000000    29.11000000
   C     40.78000000    35.26000000    30.09000000
   C     42.20000000    36.85000000    29.04000000
   H     44.03000000    35.52000000    31.05000000
   H     42.63000000    33.42000000    29.58000000
   H     41.57000000    34.92000000    28.19000000
   H     40.00000000    35.88000000    29.65000000
   H     40.39000000    34.24000000    30.12000000
   H     41.07000000    35.61000000    31.08000000
   H     42.64000000    37.34000000    29.91000000
   H     42.84000000    37.08000000    28.18000000
   H     41.29000000    37.44000000    28.91000000
   N     44.39000000    33.35000000    27.77000000
   C     45.49000000    33.23000000    26.83000000
   C     45.04000000    33.64000000    25.43000000
   O     43.94000000    34.16000000    25.26000000
   C     46.01000000    31.80000000    26.92000000
   C     45.38000000    30.84000000    25.92000000
   N     44.32000000    30.15000000    26.33000000
   O     45.86000000    30.55000000    24.83000000
   H     43.78000000    32.54000000    27.87000000
   H     46.30000000    33.89000000    27.14000000
   H     45.83000000    31.43000000    27.92000000
   H     47.08000000    31.86000000    26.71000000
   H     43.89000000    30.44000000    27.20000000
   H     43.87000000    29.51000000    25.69000000
   N     45.90000000    33.54000000    24.42000000
   C     45.54000000    33.97000000    23.09000000
   C     44.39000000    33.14000000    22.53000000
   O     43.73000000    33.57000000    21.58000000
   C     46.71000000    34.14000000    22.12000000
   C     46.17000000    34.87000000    20.92000000
   C     45.91000000    36.24000000    21.10000000
   C     46.00000000    34.32000000    19.64000000
   C     45.55000000    37.12000000    20.07000000
   C     45.60000000    35.18000000    18.62000000
   C     45.34000000    36.55000000    18.80000000
   O     44.95000000    37.24000000    17.69000000
   H     46.86000000    33.33000000    24.67000000
   H     45.16000000    34.99000000    23.21000000
   H     47.19000000    33.18000000    21.90000000
   H     47.49000000    34.79000000    22.51000000
   H     46.28000000    36.61000000    22.04000000
   H     46.14000000    33.25000000    19.55000000
   H     45.46000000    38.18000000    20.21000000
   H     45.44000000    34.73000000    17.65000000
   H     44.72000000    36.69000000    16.93000000
   N     44.07000000    31.93000000    22.99000000
   C     42.81000000    31.32000000    22.61000000
   C     41.57000000    31.87000000    23.30000000
   O     40.48000000    31.87000000    22.72000000
   C     42.83000000    29.83000000    22.95000000
   C     41.73000000    28.97000000    22.35000000
   C     41.97000000    27.54000000    22.81000000
   O     41.49000000    27.12000000    23.89000000
   O     42.66000000    26.85000000    22.03000000
   H     44.75000000    31.56000000    23.64000000
   H     42.74000000    31.42000000    21.53000000
   H     42.90000000    29.66000000    24.02000000
   H     43.73000000    29.42000000    22.49000000
   H     41.77000000    29.14000000    21.27000000
   H     40.73000000    29.27000000    22.64000000
   N     41.61000000    32.38000000    24.53000000
   C     40.47000000    32.84000000    25.29000000
   C     40.11000000    34.28000000    24.96000000
   O     38.93000000    34.59000000    25.02000000
   C     40.73000000    32.62000000    26.78000000
   C     40.85000000    31.14000000    27.12000000
   C     41.48000000    30.92000000    28.48000000
   O     42.73000000    30.89000000    28.53000000
   O     40.78000000    30.70000000    29.50000000
   H     42.54000000    32.50000000    24.90000000
   H     39.56000000    32.33000000    24.95000000
   H     39.87000000    33.08000000    27.27000000
   H     41.64000000    33.16000000    27.05000000
   H     41.60000000    30.79000000    26.40000000
   H     39.85000000    30.70000000    27.09000000
   N     41.12000000    35.10000000    24.63000000
   C     41.00000000    36.50000000    24.30000000
   H     40.16500000    36.93200000    24.85200000
   H     41.92000000    37.01800000    24.57000000
   H     40.82200000    36.60800000    23.23000000
   H     42.04000000    34.68000000    24.60000000
  Ca     42.62000000    29.96000000    31.19000000
   O     45.11000000    30.35000000    30.82000000
   H     45.66000000    29.85000000    30.23000000
   H     45.47000000    30.19000000    31.69000000

Ca 1.00



