%chk=loop1.holoCaM-CaMKII.run8.water2.chk
%nprocshared=20
%mem=10GB
%nosave
#b3lyp/svp scf=(tight,noincore,xqc) Test 
#IOP(5/87=12) Density=Current Pop=(MK,readradii) iop(6/33=2) iop(6/42=6)

loop1.holoCaM-CaMKII.run8.water2 

   0  1 
   C     80.52000000    68.60000000    21.99000000
   C     81.37000000    69.77000000    21.51000000
   O     81.87000000    69.77000000    20.39000000
   H     79.56300000    68.60900000    21.46900000
   H     81.03800000    67.66400000    21.78100000
   H     80.35000000    68.69000000    23.06300000
   N     81.59000000    70.81000000    22.32000000
   C     82.30000000    72.02000000    21.95000000
   C     83.79000000    71.85000000    21.68000000
   O     84.45000000    71.63000000    22.69000000
   C     81.99000000    73.10000000    22.98000000
   C     82.83000000    74.37000000    22.92000000
   O     83.06000000    75.05000000    23.94000000
   O     83.24000000    74.75000000    21.80000000
   H     81.22000000    70.79000000    23.26000000
   H     81.86000000    72.30000000    20.99000000
   H     82.13000000    72.67000000    23.97000000
   H     80.92000000    73.33000000    22.97000000
   N     84.30000000    72.01000000    20.45000000
   C     85.64000000    71.53000000    20.18000000
   C     86.75000000    72.58000000    20.14000000
   O     87.88000000    72.16000000    20.39000000
   C     85.61000000    70.70000000    18.90000000
   C     86.10000000    69.27000000    19.10000000
   C     84.99000000    68.50000000    19.83000000
   C     84.92000000    68.58000000    21.35000000
   N     85.81000000    67.69000000    22.11000000
   H     83.70000000    72.50000000    19.80000000
   H     86.01000000    70.87000000    20.96000000
   H     86.27000000    71.20000000    18.19000000
   H     84.63000000    70.75000000    18.43000000
   H     87.03000000    69.34000000    19.65000000
   H     86.27000000    68.88000000    18.10000000
   H     85.11000000    67.47000000    19.50000000
   H     84.06000000    68.89000000    19.42000000
   H     83.90000000    68.34000000    21.66000000
   H     85.12000000    69.59000000    21.72000000
   H     86.75000000    67.98000000    21.89000000
   H     85.85000000    67.77000000    23.11000000
   H     85.82000000    66.73000000    21.80000000
   N     86.46000000    73.86000000    19.93000000
   C     87.44000000    74.93000000    20.03000000
   C     87.35000000    75.56000000    21.41000000
   O     88.12000000    76.44000000    21.79000000
   C     87.29000000    75.97000000    18.93000000
   C     85.88000000    76.15000000    18.40000000
   O     85.73000000    76.78000000    17.33000000
   O     84.88000000    75.83000000    19.07000000
   H     85.50000000    74.09000000    19.69000000
   H     88.46000000    74.54000000    19.96000000
   H     88.05000000    75.90000000    18.16000000
   H     87.52000000    76.95000000    19.35000000
   N     86.50000000    75.05000000    22.30000000
   C     86.41000000    75.34000000    23.72000000
   C     86.07000000    76.79000000    24.03000000
   O     86.59000000    77.29000000    25.03000000
   H     85.93000000    74.30000000    21.94000000
   H     87.46000000    75.20000000    23.98000000
   H     85.72000000    74.66000000    24.21000000
   N     85.16000000    77.40000000    23.26000000
   C     84.80000000    78.80000000    23.30000000
   C     83.67000000    79.12000000    24.28000000
   O     83.38000000    80.27000000    24.59000000
   C     84.46000000    79.27000000    21.89000000
   C     83.40000000    78.54000000    21.08000000
   O     82.34000000    78.06000000    21.55000000
   O     83.64000000    78.47000000    19.86000000
   H     84.98000000    76.94000000    22.39000000
   H     85.67000000    79.35000000    23.64000000
   H     85.39000000    79.27000000    21.32000000
   H     84.11000000    80.30000000    21.80000000
   N     83.06000000    78.07000000    24.83000000
   C     81.86000000    78.20000000    25.64000000
   C     80.56000000    77.94000000    24.90000000
   O     79.52000000    78.05000000    25.55000000
   H     83.39000000    77.15000000    24.59000000
   H     81.81000000    79.12000000    26.23000000
   H     81.96000000    77.42000000    26.39000000
   N     80.54000000    77.59000000    23.61000000
   C     79.32000000    77.30000000    22.90000000
   C     79.35000000    76.08000000    21.99000000
   O     80.39000000    75.88000000    21.38000000
   C     78.97000000    78.58000000    22.13000000
   C     78.92000000    79.79000000    23.05000000
   O     79.88000000    79.07000000    21.17000000
   H     81.43000000    77.44000000    23.15000000
   H     78.54000000    77.15000000    23.65000000
   H     77.93000000    78.52000000    21.82000000
   H     80.79000000    78.95000000    21.45000000
   H     79.77000000    80.30000000    23.51000000
   H     78.45000000    80.66000000    22.58000000
   H     78.26000000    79.54000000    23.88000000
   N     78.22000000    75.38000000    21.80000000
   C     77.97000000    74.35000000    20.82000000
   C     77.25000000    75.01000000    19.65000000
   O     76.27000000    75.71000000    19.89000000
   C     77.22000000    73.15000000    21.41000000
   C     77.68000000    72.63000000    22.77000000
   C     77.35000000    72.02000000    20.39000000
   C     76.63000000    71.75000000    23.45000000
   H     77.47000000    75.45000000    22.47000000
   H     78.91000000    74.01000000    20.40000000
   H     76.15000000    73.36000000    21.44000000
   H     77.92000000    73.43000000    23.47000000
   H     78.65000000    72.15000000    22.65000000
   H     76.91000000    71.11000000    20.79000000
   H     76.79000000    72.32000000    19.50000000
   H     78.38000000    71.67000000    20.29000000
   H     77.00000000    71.40000000    24.42000000
   H     75.76000000    72.35000000    23.74000000
   H     76.28000000    70.93000000    22.83000000
   N     77.76000000    74.90000000    18.42000000
   C     77.06000000    75.10000000    17.17000000
   C     76.21000000    73.88000000    16.81000000
   O     76.49000000    72.73000000    17.14000000
   C     77.98000000    75.48000000    16.02000000
   C     79.06000000    76.51000000    16.34000000
   O     78.59000000    74.30000000    15.52000000
   H     78.55000000    74.27000000    18.41000000
   H     76.36000000    75.91000000    17.37000000
   H     77.28000000    75.89000000    15.30000000
   H     79.43000000    74.58000000    15.15000000
   H     79.45000000    76.74000000    15.35000000
   H     78.64000000    77.46000000    16.67000000
   H     79.75000000    76.12000000    17.09000000
   N     75.29000000    74.08000000    15.86000000
   C     74.65000000    73.02000000    15.11000000
   C     75.57000000    72.02000000    14.41000000
   O     75.13000000    70.90000000    14.16000000
   C     73.57000000    73.52000000    14.15000000
   C     72.46000000    72.51000000    13.87000000
   O     73.09000000    74.79000000    14.52000000
   H     74.98000000    75.03000000    15.74000000
   H     74.15000000    72.41000000    15.86000000
   H     74.02000000    73.67000000    13.17000000
   H     72.16000000    74.88000000    14.31000000
   H     72.51000000    72.08000000    12.87000000
   H     72.38000000    71.80000000    14.69000000
   H     71.50000000    73.01000000    13.96000000
   N     76.78000000    72.46000000    14.08000000
   C     77.82000000    71.64000000    13.47000000
   C     78.56000000    70.74000000    14.45000000
   O     78.80000000    69.58000000    14.12000000
   C     78.78000000    72.39000000    12.55000000
   C     79.80000000    71.66000000    11.68000000
   C     79.11000000    70.82000000    10.61000000
   C     78.26000000    71.67000000     9.67000000
   N     77.52000000    70.83000000     8.72000000
   H     76.99000000    73.45000000    14.08000000
   H     77.29000000    70.91000000    12.87000000
   H     79.47000000    72.91000000    13.21000000
   H     78.31000000    73.15000000    11.94000000
   H     80.34000000    70.89000000    12.24000000
   H     80.57000000    72.31000000    11.27000000
   H     78.40000000    70.13000000    11.06000000
   H     79.85000000    70.31000000    10.00000000
   H     78.84000000    72.48000000     9.24000000
   H     77.48000000    72.18000000    10.25000000
   H     76.98000000    70.23000000     9.32000000
   H     76.95000000    71.33000000     8.06000000
   H     78.10000000    70.21000000     8.16000000
   N     78.75000000    71.30000000    15.65000000
   C     79.26000000    70.59000000    16.80000000
   C     78.28000000    69.51000000    17.24000000
   O     78.69000000    68.53000000    17.85000000
   C     79.72000000    71.58000000    17.87000000
   C     81.13000000    72.08000000    17.59000000
   C     81.56000000    73.31000000    18.38000000
   O     80.74000000    74.18000000    18.76000000
   O     82.76000000    73.46000000    18.70000000
   H     78.45000000    72.25000000    15.78000000
   H     80.10000000    69.95000000    16.51000000
   H     79.65000000    71.16000000    18.87000000
   H     78.95000000    72.36000000    17.87000000
   H     81.30000000    72.40000000    16.56000000
   H     81.81000000    71.25000000    17.77000000
   N     76.98000000    69.75000000    17.06000000
   C     75.97000000    68.71000000    17.16000000
   H     75.07400000    69.02100000    16.62200000
   H     76.35300000    67.78800000    16.72300000
   H     75.72400000    68.54200000    18.20800000
   H     76.71000000    70.70000000    16.85000000
  Ca     82.43000000    75.90000000    19.70000000
   O     83.09000000    76.13000000    17.18000000
   H     83.99000000    76.27000000    17.46000000
   H     83.16000000    76.01000000    16.23000000
   O     80.89000000    77.99000000    18.82000000
   H     81.15000000    78.76000000    18.31000000
   H     80.55000000    78.35000000    19.64000000

Ca 1.00



