%chk=loop4.holoCaM-CaMKII.run84.water2.chk
%nprocshared=20
%mem=10GB
%nosave
#b3lyp/svp scf=(tight,noincore,xqc) Test 
#IOP(5/87=12) Density=Current Pop=(MK,readradii) iop(6/33=2) iop(6/42=6)

loop4.holoCaM-CaMKII.run84.water2 

   -3  1 
   C     40.76000000    45.73000000   101.32000000
   C     39.38000000    45.10000000   101.48000000
   O     38.46000000    45.53000000   100.80000000
   H     41.47500000    44.96500000   101.01800000
   H     40.71900000    46.50900000   100.55800000
   H     41.07300000    46.16500000   102.26900000
   N     39.24000000    44.11000000   102.36000000
   C     37.99000000    43.50000000   102.78000000
   C     37.27000000    44.46000000   103.72000000
   O     37.78000000    44.95000000   104.72000000
   C     38.33000000    42.20000000   103.51000000
   C     37.10000000    41.64000000   104.21000000
   O     37.17000000    41.23000000   105.39000000
   O     35.98000000    41.63000000   103.65000000
   H     40.06000000    43.86000000   102.90000000
   H     37.42000000    43.29000000   101.88000000
   H     39.18000000    42.30000000   104.18000000
   H     38.68000000    41.41000000   102.85000000
   N     35.98000000    44.61000000   103.42000000
   C     35.06000000    45.57000000   104.00000000
   C     34.11000000    44.98000000   105.03000000
   O     33.58000000    45.79000000   105.79000000
   C     34.35000000    46.40000000   102.94000000
   C     33.05000000    45.75000000   102.47000000
   C     35.26000000    46.65000000   101.74000000
   C     32.49000000    46.03000000   101.08000000
   H     35.59000000    44.02000000   102.70000000
   H     35.72000000    46.26000000   104.53000000
   H     34.08000000    47.38000000   103.33000000
   H     32.27000000    46.02000000   103.18000000
   H     33.25000000    44.68000000   102.46000000
   H     34.97000000    47.49000000   101.11000000
   H     36.26000000    46.81000000   102.15000000
   H     35.46000000    45.77000000   101.13000000
   H     32.25000000    47.09000000   101.00000000
   H     33.18000000    45.78000000   100.27000000
   H     31.55000000    45.49000000   100.93000000
   N     33.71000000    43.71000000   104.95000000
   C     32.58000000    43.15000000   105.66000000
   C     32.81000000    42.10000000   106.74000000
   O     31.90000000    41.67000000   107.43000000
   C     31.52000000    42.69000000   104.67000000
   C     31.90000000    41.84000000   103.47000000
   O     30.99000000    41.57000000   102.65000000
   O     33.03000000    41.30000000   103.38000000
   H     34.17000000    43.10000000   104.28000000
   H     32.11000000    43.96000000   106.22000000
   H     30.95000000    43.54000000   104.29000000
   H     30.82000000    42.11000000   105.27000000
   N     34.09000000    41.71000000   106.84000000
   C     34.56000000    40.97000000   107.99000000
   C     34.88000000    39.51000000   107.68000000
   O     35.01000000    38.74000000   108.62000000
   H     34.66000000    42.11000000   106.11000000
   H     33.79000000    41.00000000   108.76000000
   H     35.49000000    41.28000000   108.47000000
   N     35.03000000    39.09000000   106.42000000
   C     35.15000000    37.69000000   106.07000000
   C     36.63000000    37.38000000   105.89000000
   O     37.03000000    36.22000000   105.82000000
   C     34.29000000    37.29000000   104.87000000
   C     34.64000000    38.15000000   103.66000000
   O     35.77000000    38.66000000   103.50000000
   O     33.71000000    38.24000000   102.84000000
   H     35.03000000    39.78000000   105.68000000
   H     34.85000000    37.07000000   106.92000000
   H     33.29000000    37.48000000   105.25000000
   H     34.37000000    36.24000000   104.58000000
   N     37.54000000    38.36000000   105.83000000
   C     38.94000000    38.10000000   105.55000000
   C     39.40000000    37.70000000   104.16000000
   O     40.55000000    37.27000000   104.06000000
   H     37.27000000    39.32000000   105.94000000
   H     39.31000000    37.35000000   106.25000000
   H     39.58000000    38.96000000   105.77000000
   N     38.56000000    37.91000000   103.14000000
   C     38.86000000    37.68000000   101.74000000
   C     38.24000000    38.75000000   100.86000000
   O     37.12000000    39.21000000   101.08000000
   C     38.54000000    36.26000000   101.29000000
   C     37.04000000    36.05000000   101.11000000
   C     36.79000000    34.56000000   100.98000000
   N     35.53000000    34.11000000   101.04000000
   O     37.59000000    33.66000000   100.73000000
   H     37.68000000    38.36000000   103.33000000
   H     39.93000000    37.85000000   101.62000000
   H     38.94000000    35.55000000   102.02000000
   H     38.97000000    36.02000000   100.31000000
   H     36.73000000    36.44000000   100.14000000
   H     36.48000000    36.39000000   101.98000000
   H     34.83000000    34.79000000   101.30000000
   H     35.36000000    33.12000000   100.92000000
   N     39.00000000    39.09000000    99.82000000
   C     38.63000000    40.13000000    98.88000000
   C     37.94000000    39.65000000    97.61000000
   O     38.53000000    38.93000000    96.80000000
   C     39.86000000    40.97000000    98.54000000
   C     39.59000000    42.12000000    97.58000000
   C     40.59000000    41.47000000    99.79000000
   H     39.94000000    38.72000000    99.81000000
   H     37.89000000    40.78000000    99.34000000
   H     40.61000000    40.38000000    98.02000000
   H     40.40000000    42.86000000    97.61000000
   H     39.53000000    41.65000000    96.60000000
   H     38.67000000    42.57000000    97.95000000
   H     40.87000000    40.60000000   100.38000000
   H     41.45000000    42.04000000    99.45000000
   H     39.91000000    42.12000000   100.34000000
   N     36.72000000    40.06000000    97.27000000
   C     35.97000000    39.84000000    96.05000000
   C     36.21000000    40.93000000    95.01000000
   O     36.67000000    42.02000000    95.34000000
   C     34.54000000    39.49000000    96.46000000
   C     33.52000000    40.61000000    96.27000000
   N     33.14000000    41.26000000    97.37000000
   O     32.92000000    40.82000000    95.22000000
   H     36.35000000    40.67000000    97.99000000
   H     36.26000000    38.90000000    95.59000000
   H     34.41000000    39.23000000    97.51000000
   H     34.28000000    38.64000000    95.83000000
   H     33.57000000    41.23000000    98.28000000
   H     32.56000000    42.08000000    97.30000000
   N     35.83000000    40.74000000    93.74000000
   C     35.96000000    41.67000000    92.64000000
   C     35.44000000    43.07000000    92.96000000
   O     36.20000000    43.99000000    92.65000000
   C     35.43000000    41.02000000    91.37000000
   C     35.51000000    41.98000000    90.21000000
   C     36.74000000    42.18000000    89.57000000
   C     34.39000000    42.69000000    89.78000000
   C     36.83000000    43.04000000    88.47000000
   C     34.51000000    43.66000000    88.77000000
   C     35.73000000    43.83000000    88.09000000
   O     35.91000000    44.73000000    87.08000000
   H     35.49000000    39.82000000    93.51000000
   H     37.03000000    41.85000000    92.49000000
   H     34.41000000    40.75000000    91.67000000
   H     36.00000000    40.12000000    91.12000000
   H     37.63000000    41.64000000    89.88000000
   H     33.42000000    42.48000000    90.20000000
   H     37.80000000    43.40000000    88.15000000
   H     33.70000000    44.31000000    88.51000000
   H     35.12000000    45.27000000    86.93000000
   N     34.25000000    43.18000000    93.54000000
   C     33.66000000    44.47000000    93.84000000
   C     34.44000000    45.27000000    94.88000000
   O     34.43000000    46.49000000    94.93000000
   C     32.26000000    44.40000000    94.45000000
   C     31.24000000    43.78000000    93.50000000
   C     29.88000000    43.59000000    94.15000000
   O     29.52000000    42.42000000    94.43000000
   O     29.16000000    44.60000000    94.27000000
   H     33.81000000    42.36000000    93.93000000
   H     33.68000000    45.06000000    92.92000000
   H     31.91000000    45.38000000    94.75000000
   H     32.34000000    43.80000000    95.36000000
   H     31.66000000    42.81000000    93.20000000
   H     31.17000000    44.27000000    92.53000000
   N     35.16000000    44.60000000    95.79000000
   C     36.07000000    45.10000000    96.81000000
   C     37.46000000    45.40000000    96.28000000
   O     38.06000000    46.38000000    96.71000000
   C     36.17000000    44.15000000    97.99000000
   C     34.90000000    43.81000000    98.77000000
   C     35.14000000    42.76000000    99.84000000
   O     34.99000000    43.07000000   101.05000000
   O     35.34000000    41.56000000    99.54000000
   H     35.17000000    43.60000000    95.71000000
   H     35.63000000    46.03000000    97.17000000
   H     36.89000000    44.61000000    98.67000000
   H     36.50000000    43.14000000    97.75000000
   H     34.09000000    43.59000000    98.08000000
   H     34.64000000    44.68000000    99.37000000
   N     37.90000000    44.73000000    95.21000000
   C     39.04000000    45.22000000    94.46000000
   H     39.90200000    44.58000000    94.65100000
   H     38.80800000    45.20800000    93.39500000
   H     39.26900000    46.23900000    94.77100000
   H     37.37000000    43.95000000    94.85000000
  Ca     34.81000000    40.49000000   101.80600000
   O     32.36000000    40.63000000   100.32600000
   H     31.94000000    40.91000000   101.13600000
   H     31.64000000    40.54000000    99.70600000
   O     34.11000000    38.60000000    99.96600000
   H     33.24000000    38.82000000    99.62600000
   H     34.07000000    37.65000000   100.08600000

Ca 1.00



