%chk=loop2.holoCaM-CaMKII.run38.water1.chk
%nprocshared=20
%mem=10GB
%nosave
#b3lyp/svp scf=(tight,noincore,xqc) Test 
#IOP(5/87=12) Density=Current Pop=(MK,readradii) iop(6/33=2) iop(6/42=6)

loop2.holoCaM-CaMKII.run38.water1 

   -2  1 
   C     80.67400000    55.54000000    -9.37400000
   C     80.90400000    54.39000000   -10.35400000
   O     81.84400000    54.43000000   -11.15400000
   H     79.64900000    55.50300000    -9.00600000
   H     81.36400000    55.44700000    -8.53500000
   H     80.84400000    56.49000000    -9.88100000
   N     80.03400000    53.38000000   -10.40400000
   C     80.03400000    52.28000000   -11.34400000
   C     80.00400000    52.67000000   -12.81400000
   O     79.27400000    53.57000000   -13.23400000
   C     78.92400000    51.30000000   -10.99400000
   C     79.20400000    49.86000000   -11.39400000
   O     78.51400000    48.99000000   -10.83400000
   O     80.24400000    49.55000000   -12.01400000
   H     79.26400000    53.50000000    -9.76400000
   H     80.99400000    51.80000000   -11.18400000
   H     77.89400000    51.60000000   -11.18400000
   H     78.95400000    51.27000000    -9.90400000
   N     80.79400000    51.93000000   -13.60400000
   C     80.82400000    52.00000000   -15.05400000
   C     80.46400000    50.71000000   -15.77400000
   O     80.46400000    50.66000000   -16.99400000
   C     82.22400000    52.47000000   -15.41400000
   H     81.37400000    51.23000000   -13.17400000
   H     80.15400000    52.76000000   -15.46400000
   H     82.19400000    52.73000000   -16.47400000
   H     82.48400000    53.45000000   -15.00400000
   H     82.95400000    51.66000000   -15.32400000
   N     80.14400000    49.64000000   -15.03400000
   C     79.81400000    48.35000000   -15.59400000
   C     78.57400000    47.69000000   -14.99400000
   O     77.83400000    46.94000000   -15.61400000
   C     81.18400000    47.67000000   -15.52400000
   C     81.63400000    47.28000000   -14.11400000
   O     80.88400000    47.25000000   -13.11400000
   O     82.86400000    47.25000000   -13.92400000
   H     80.31400000    49.63000000   -14.03400000
   H     79.57400000    48.48000000   -16.64400000
   H     81.90400000    48.28000000   -16.06400000
   H     81.19400000    46.68000000   -15.96400000
   N     78.21400000    48.06000000   -13.76400000
   C     77.14400000    47.48000000   -12.97400000
   C     77.42400000    46.21000000   -12.18400000
   O     76.46400000    45.55000000   -11.78400000
   H     78.96400000    48.45000000   -13.20400000
   H     76.37400000    47.23000000   -13.70400000
   H     76.77400000    48.15000000   -12.20400000
   N     78.68400000    45.83000000   -11.93400000
   C     79.07400000    44.45000000   -11.72400000
   C     79.25400000    43.98000000   -10.29400000
   O     79.39400000    42.77000000   -10.09400000
   C     80.25400000    44.12000000   -12.63400000
   C     81.59400000    44.66000000   -12.14400000
   N     82.68400000    44.04000000   -12.62400000
   O     81.78400000    45.47000000   -11.24400000
   H     79.41400000    46.49000000   -12.14400000
   H     78.26400000    43.86000000   -12.15400000
   H     79.95400000    44.49000000   -13.60400000
   H     80.33400000    43.04000000   -12.75400000
   H     82.65400000    43.24000000   -13.24400000
   H     83.53400000    44.27000000   -12.13400000
   N     79.21400000    44.85000000    -9.27400000
   C     79.17400000    44.60000000    -7.85400000
   C     80.25400000    45.18000000    -6.95400000
   O     80.13400000    45.10000000    -5.73400000
   H     79.37400000    45.81000000    -9.55400000
   H     79.18400000    43.53000000    -7.64400000
   H     78.16400000    44.72000000    -7.47400000
   N     81.38400000    45.65000000    -7.51400000
   C     82.56400000    46.15000000    -6.84400000
   C     83.27400000    47.31000000    -7.52400000
   O     83.21400000    47.51000000    -8.73400000
   C     83.58400000    45.03000000    -6.67400000
   C     83.06400000    43.96000000    -5.71400000
   O     83.95400000    44.53000000    -7.94400000
   H     81.42400000    45.67000000    -8.52400000
   H     82.30400000    46.48000000    -5.83400000
   H     84.48400000    45.51000000    -6.28400000
   H     83.25400000    43.96000000    -8.27400000
   H     82.12400000    43.55000000    -6.09400000
   H     83.81400000    43.17000000    -5.62400000
   H     82.90400000    44.43000000    -4.74400000
   N     83.90400000    48.15000000    -6.69400000
   C     84.79400000    49.18000000    -7.18400000
   C     86.00400000    48.60000000    -7.90400000
   O     86.73400000    47.82000000    -7.29400000
   C     85.24400000    50.15000000    -6.09400000
   C     84.07400000    50.86000000    -5.42400000
   C     86.36400000    51.11000000    -6.49400000
   C     83.33400000    51.83000000    -6.35400000
   H     84.09400000    47.73000000    -5.79400000
   H     84.27400000    49.74000000    -7.95400000
   H     85.73400000    49.49000000    -5.38400000
   H     84.38400000    51.43000000    -4.55400000
   H     83.38400000    50.08000000    -5.10400000
   H     86.48400000    51.87000000    -5.72400000
   H     87.35400000    50.66000000    -6.58400000
   H     86.10400000    51.60000000    -7.43400000
   H     83.99400000    52.38000000    -7.01400000
   H     82.62400000    51.19000000    -6.88400000
   H     82.86400000    52.52000000    -5.65400000
   N     86.16400000    49.05000000    -9.15400000
   C     87.40400000    49.05000000    -9.91400000
   C     88.21400000    50.34000000    -9.84400000
   O     87.76400000    51.44000000    -9.54400000
   C     87.12400000    48.62000000   -11.34400000
   C     86.12400000    47.49000000   -11.58400000
   O     84.91400000    47.71000000   -11.38400000
   O     86.53400000    46.36000000   -11.93400000
   H     85.32400000    49.46000000    -9.54400000
   H     88.06400000    48.26000000    -9.56400000
   H     88.09400000    48.27000000   -11.70400000
   H     86.76400000    49.46000000   -11.94400000
   N     89.46400000    50.26000000   -10.30400000
   C     90.26400000    51.47000000   -10.37400000
   C     89.82400000    52.64000000   -11.24400000
   O     89.96400000    53.80000000   -10.86400000
   C     91.72400000    51.06000000   -10.57400000
   C     92.86400000    52.04000000   -10.43400000
   C     93.63400000    52.34000000   -11.56400000
   C     93.06400000    52.62000000    -9.18400000
   C     94.64400000    53.30000000   -11.44400000
   C     94.07400000    53.59000000    -9.08400000
   C     94.86400000    53.90000000   -10.19400000
   H     89.80400000    49.40000000   -10.71400000
   H     90.18400000    51.93000000    -9.38400000
   H     91.90400000    50.55000000   -11.52400000
   H     91.92400000    50.27000000    -9.84400000
   H     93.53400000    51.82000000   -12.51400000
   H     92.49400000    52.37000000    -8.30400000
   H     95.35400000    53.41000000   -12.24400000
   H     94.35400000    53.96000000    -8.11400000
   H     95.72400000    54.53000000   -10.03400000
   N     89.21400000    52.46000000   -12.42400000
   C     88.57400000    53.56000000   -13.11400000
   C     87.40400000    54.23000000   -12.39400000
   O     87.07400000    55.37000000   -12.70400000
   C     87.94400000    52.95000000   -14.35400000
   C     88.77400000    51.70000000   -14.66400000
   C     89.08400000    51.27000000   -13.23400000
   H     89.27400000    54.35000000   -13.38400000
   H     86.90400000    52.72000000   -14.11400000
   H     87.92400000    53.63000000   -15.20400000
   H     88.09400000    51.02000000   -15.17400000
   H     89.64400000    51.92000000   -15.27400000
   H     88.24400000    50.68000000   -12.86400000
   H     90.03400000    50.72000000   -13.28400000
   N     86.80400000    53.62000000   -11.36400000
   C     85.67400000    54.13000000   -10.62400000
   C     86.23400000    54.75000000    -9.35400000
   O     85.87400000    55.88000000    -9.00400000
   C     84.72400000    52.97000000   -10.32400000
   C     84.49400000    52.08000000   -11.53400000
   C     83.60400000    50.86000000   -11.31400000
   O     83.00400000    50.37000000   -12.29400000
   O     83.54400000    50.18000000   -10.26400000
   H     87.24400000    52.79000000   -10.99400000
   H     85.14400000    54.89000000   -11.19400000
   H     83.78400000    53.23000000    -9.83400000
   H     85.07400000    52.36000000    -9.49400000
   H     85.45400000    51.65000000   -11.83400000
   H     84.13400000    52.70000000   -12.35400000
   N     87.15400000    54.14000000    -8.61400000
   C     87.93400000    54.77000000    -7.56400000
   H     88.83400000    55.20800000    -7.99400000
   H     87.34100000    55.55200000    -7.08900000
   H     88.21400000    54.02300000    -6.82100000
   H     87.36400000    53.20000000    -8.91400000
  Ca     82.27000000    48.15000000   -11.23400000
   O     80.21000000    47.68000000    -9.51400000
   H     79.36000000    47.80000000    -9.94400000
   H     80.37000000    48.51000000    -9.07400000

Ca 1.00



