%chk=loop3.holoCaM.run40.water2.chk
%nprocshared=20
%mem=10GB
%nosave
#b3lyp/svp scf=(tight,noincore,xqc) Test 
#IOP(5/87=12) Density=Current Pop=(MK,readradii) iop(6/33=2) iop(6/42=6)

loop3.holoCaM.run40.water2 

   0  1 
   C     74.38000000    61.32000000    99.25000000
   C     75.30000000    61.66000000    98.08000000
   O     75.93000000    60.72000000    97.61000000
   H     73.41400000    60.99000000    98.86800000
   H     74.82700000    60.52300000    99.84500000
   H     74.24100000    62.20400000    99.87200000
   N     75.42000000    62.93000000    97.70000000
   C     76.63000000    63.31000000    96.99000000
   C     77.76000000    63.35000000    98.01000000
   O     77.53000000    63.95000000    99.05000000
   C     76.38000000    64.62000000    96.24000000
   C     77.52000000    65.09000000    95.36000000
   O     77.41000000    66.29000000    95.00000000
   O     78.52000000    64.38000000    95.13000000
   H     74.82000000    63.60000000    98.15000000
   H     76.84000000    62.53000000    96.26000000
   H     76.01000000    65.44000000    96.85000000
   H     75.51000000    64.43000000    95.60000000
   N     78.88000000    62.71000000    97.65000000
   C     80.10000000    62.52000000    98.40000000
   C     81.27000000    63.40000000    98.00000000
   O     82.28000000    63.45000000    98.71000000
   C     80.61000000    61.08000000    98.40000000
   C     79.77000000    60.07000000    99.18000000
   C     79.56000000    60.33000000   100.66000000
   C     78.81000000    59.21000000   101.37000000
   N     77.41000000    59.25000000   100.92000000
   H     78.86000000    62.10000000    96.84000000
   H     79.76000000    62.84000000    99.38000000
   H     81.55000000    61.00000000    98.94000000
   H     80.72000000    60.74000000    97.37000000
   H     80.26000000    59.10000000    99.12000000
   H     78.82000000    60.04000000    98.64000000
   H     79.24000000    61.36000000   100.83000000
   H     80.55000000    60.24000000   101.12000000
   H     78.90000000    59.46000000   102.43000000
   H     79.26000000    58.25000000   101.14000000
   H     76.85000000    60.02000000   101.26000000
   H     77.39000000    59.35000000    99.91000000
   H     76.82000000    58.52000000   101.31000000
   N     81.16000000    64.20000000    96.94000000
   C     82.23000000    65.08000000    96.52000000
   C     81.84000000    66.44000000    95.95000000
   O     82.67000000    67.23000000    95.52000000
   C     83.05000000    64.30000000    95.49000000
   C     82.17000000    63.72000000    94.39000000
   O     81.86000000    62.51000000    94.47000000
   O     81.63000000    64.44000000    93.53000000
   H     80.29000000    64.17000000    96.44000000
   H     82.95000000    65.21000000    97.33000000
   H     83.51000000    63.50000000    96.06000000
   H     83.92000000    64.88000000    95.17000000
   N     80.53000000    66.69000000    95.95000000
   C     80.04000000    68.05000000    95.81000000
   C     79.96000000    68.54000000    94.38000000
   O     79.58000000    69.71000000    94.26000000
   H     79.85000000    65.98000000    96.19000000
   H     80.73000000    68.73000000    96.31000000
   H     79.06000000    68.04000000    96.29000000
   N     80.06000000    67.68000000    93.36000000
   C     79.71000000    68.07000000    92.01000000
   C     78.22000000    68.27000000    91.82000000
   O     77.94000000    68.78000000    90.73000000
   C     80.45000000    67.16000000    91.03000000
   C     79.84000000    65.77000000    90.88000000
   N     79.78000000    65.36000000    89.61000000
   O     79.30000000    65.16000000    91.80000000
   H     80.24000000    66.71000000    93.57000000
   H     80.03000000    69.09000000    91.82000000
   H     81.49000000    67.03000000    91.32000000
   H     80.44000000    67.62000000    90.04000000
   H     80.02000000    65.98000000    88.85000000
   H     79.40000000    64.45000000    89.40000000
   N     77.39000000    68.02000000    92.83000000
   C     75.94000000    67.97000000    92.72000000
   C     75.29000000    66.67000000    92.24000000
   O     74.13000000    66.79000000    91.87000000
   H     77.83000000    67.72000000    93.68000000
   H     75.60000000    68.82000000    92.14000000
   H     75.53000000    68.09000000    93.72000000
   N     75.96000000    65.51000000    92.26000000
   C     75.46000000    64.32000000    91.61000000
   C     75.77000000    63.06000000    92.40000000
   O     76.75000000    63.07000000    93.13000000
   C     76.04000000    64.23000000    90.20000000
   C     75.67000000    65.22000000    89.11000000
   C     76.52000000    66.27000000    88.74000000
   C     74.57000000    65.00000000    88.27000000
   C     76.31000000    67.03000000    87.59000000
   C     74.21000000    65.87000000    87.24000000
   C     75.14000000    66.84000000    86.83000000
   O     74.96000000    67.57000000    85.69000000
   H     76.92000000    65.55000000    92.57000000
   H     74.38000000    64.40000000    91.47000000
   H     75.70000000    63.24000000    89.88000000
   H     77.11000000    64.23000000    90.37000000
   H     77.41000000    66.39000000    89.34000000
   H     73.91000000    64.16000000    88.47000000
   H     76.96000000    67.85000000    87.31000000
   H     73.31000000    65.69000000    86.67000000
   H     74.23000000    67.25000000    85.15000000
   N     75.05000000    61.96000000    92.16000000
   C     75.45000000    60.63000000    92.59000000
   C     76.00000000    59.73000000    91.50000000
   O     75.30000000    59.56000000    90.50000000
   C     74.29000000    59.96000000    93.33000000
   C     73.35000000    60.93000000    94.03000000
   C     74.75000000    58.85000000    94.28000000
   C     72.09000000    60.38000000    94.69000000
   H     74.30000000    62.00000000    91.48000000
   H     76.27000000    60.69000000    93.30000000
   H     73.62000000    59.51000000    92.60000000
   H     72.94000000    61.62000000    93.29000000
   H     73.82000000    61.59000000    94.76000000
   H     75.47000000    59.25000000    94.99000000
   H     73.96000000    58.31000000    94.80000000
   H     75.25000000    58.11000000    93.65000000
   H     71.49000000    61.23000000    95.03000000
   H     71.64000000    59.81000000    93.88000000
   H     72.39000000    59.78000000    95.55000000
   N     77.22000000    59.20000000    91.60000000
   C     77.82000000    58.22000000    90.72000000
   C     77.52000000    56.82000000    91.24000000
   O     77.09000000    56.64000000    92.38000000
   C     79.34000000    58.28000000    90.78000000
   O     79.87000000    57.92000000    92.04000000
   H     77.77000000    59.39000000    92.43000000
   H     77.49000000    58.30000000    89.69000000
   H     79.56000000    59.33000000    90.57000000
   H     79.83000000    57.79000000    89.93000000
   H     79.71000000    58.66000000    92.62000000
   N     77.79000000    55.83000000    90.39000000
   C     77.72000000    54.42000000    90.74000000
   C     78.66000000    53.94000000    91.83000000
   O     78.49000000    52.82000000    92.31000000
   C     77.74000000    53.60000000    89.45000000
   H     78.21000000    56.01000000    89.50000000
   H     76.69000000    54.22000000    91.05000000
   H     77.57000000    52.55000000    89.66000000
   H     77.05000000    53.98000000    88.70000000
   H     78.65000000    53.66000000    88.86000000
   N     79.63000000    54.73000000    92.30000000
   C     80.42000000    54.50000000    93.49000000
   C     79.96000000    55.16000000    94.78000000
   O     80.59000000    54.99000000    95.82000000
   C     81.87000000    54.84000000    93.18000000
   H     79.69000000    55.65000000    91.87000000
   H     80.48000000    53.43000000    93.67000000
   H     82.27000000    54.13000000    92.46000000
   H     81.75000000    55.84000000    92.76000000
   H     82.43000000    54.90000000    94.11000000
   N     78.90000000    55.96000000    94.65000000
   C     78.14000000    56.67000000    95.66000000
   C     76.75000000    56.11000000    95.93000000
   O     76.22000000    56.29000000    97.02000000
   C     78.03000000    58.15000000    95.29000000
   C     79.42000000    58.76000000    95.17000000
   C     79.36000000    60.16000000    94.59000000
   O     79.29000000    61.20000000    95.28000000
   O     79.09000000    60.31000000    93.38000000
   H     78.63000000    56.12000000    93.69000000
   H     78.73000000    56.69000000    96.57000000
   H     77.41000000    58.67000000    96.02000000
   H     77.60000000    58.26000000    94.29000000
   H     80.08000000    58.11000000    94.59000000
   H     79.96000000    58.74000000    96.12000000
   N     76.26000000    55.28000000    95.00000000
   C     74.90000000    54.79000000    94.91000000
   H     74.25700000    55.57400000    94.51000000
   H     74.86800000    53.92300000    94.25000000
   H     74.55000000    54.50500000    95.90200000
   H     76.89000000    54.93000000    94.30000000
  Ca     79.46000000    62.93000000    93.29000000
   O     78.73000000    62.02000000    90.66000000
   H     78.18000000    62.10000000    89.88000000
   H     79.54000000    61.61000000    90.34000000
   O     81.37000000    61.29000000    91.76000000
   H     82.05000000    61.33000000    91.09000000
   H     81.75000000    60.76000000    92.46000000

Ca 1.00



