%chk=loop1.holoCaM-CaMKII.run5.water2.chk
%nprocshared=20
%mem=10GB
%nosave
#b3lyp/svp scf=(tight,noincore,xqc) Test 
#IOP(5/87=12) Density=Current Pop=(MK,readradii) iop(6/33=2) iop(6/42=6)

loop1.holoCaM-CaMKII.run5.water2 

   0  1 
   C     76.16000000    57.83000000    21.08000000
   C     77.44000000    57.99000000    20.27000000
   O     77.89000000    57.02000000    19.66000000
   H     75.34600000    57.53600000    20.41800000
   H     76.30400000    57.06200000    21.84000000
   H     75.91300000    58.77700000    21.56100000
   N     78.13000000    59.12000000    20.45000000
   C     79.37000000    59.41000000    19.75000000
   C     80.59000000    58.77000000    20.41000000
   O     80.72000000    58.77000000    21.63000000
   C     79.36000000    60.92000000    19.59000000
   C     80.59000000    61.51000000    18.92000000
   O     80.70000000    62.75000000    19.05000000
   O     81.37000000    60.79000000    18.27000000
   H     77.85000000    59.84000000    21.09000000
   H     79.27000000    58.94000000    18.77000000
   H     79.07000000    61.50000000    20.47000000
   H     78.52000000    61.10000000    18.92000000
   N     81.34000000    58.04000000    19.58000000
   C     82.37000000    57.12000000    20.02000000
   C     83.76000000    57.59000000    19.63000000
   O     84.72000000    56.99000000    20.12000000
   C     82.01000000    55.71000000    19.54000000
   C     80.56000000    55.28000000    19.76000000
   C     80.16000000    55.31000000    21.23000000
   C     79.38000000    54.02000000    21.50000000
   N     78.66000000    54.05000000    22.78000000
   H     80.97000000    57.99000000    18.65000000
   H     82.46000000    57.00000000    21.10000000
   H     82.62000000    54.99000000    20.09000000
   H     82.25000000    55.57000000    18.49000000
   H     80.45000000    54.26000000    19.38000000
   H     79.83000000    55.86000000    19.19000000
   H     79.57000000    56.16000000    21.58000000
   H     81.01000000    55.24000000    21.91000000
   H     80.11000000    53.21000000    21.53000000
   H     78.70000000    53.76000000    20.69000000
   H     79.26000000    54.42000000    23.50000000
   H     77.80000000    54.57000000    22.71000000
   H     78.24000000    53.16000000    22.98000000
   N     83.90000000    58.58000000    18.74000000
   C     85.16000000    59.22000000    18.41000000
   C     85.17000000    60.71000000    18.72000000
   O     86.12000000    61.41000000    18.36000000
   C     85.48000000    58.91000000    16.95000000
   C     84.40000000    59.18000000    15.91000000
   O     84.37000000    58.55000000    14.83000000
   O     83.47000000    60.00000000    16.09000000
   H     83.05000000    59.02000000    18.44000000
   H     85.96000000    58.86000000    19.04000000
   H     85.80000000    57.88000000    16.87000000
   H     86.30000000    59.54000000    16.60000000
   N     84.19000000    61.25000000    19.44000000
   C     84.33000000    62.54000000    20.10000000
   C     84.31000000    63.73000000    19.15000000
   O     85.01000000    64.72000000    19.35000000
   H     83.37000000    60.69000000    19.60000000
   H     85.19000000    62.53000000    20.76000000
   H     83.49000000    62.68000000    20.78000000
   N     83.55000000    63.76000000    18.05000000
   C     83.54000000    64.82000000    17.07000000
   C     82.30000000    65.67000000    17.34000000
   O     82.20000000    66.73000000    16.72000000
   C     83.55000000    64.41000000    15.60000000
   C     82.52000000    63.34000000    15.27000000
   O     81.34000000    63.39000000    15.70000000
   O     82.84000000    62.28000000    14.69000000
   H     82.95000000    62.95000000    17.90000000
   H     84.34000000    65.51000000    17.31000000
   H     84.52000000    63.97000000    15.37000000
   H     83.52000000    65.23000000    14.89000000
   N     81.32000000    65.34000000    18.18000000
   C     80.13000000    66.15000000    18.35000000
   C     78.97000000    65.96000000    17.40000000
   O     78.06000000    66.79000000    17.30000000
   H     81.33000000    64.47000000    18.69000000
   H     80.50000000    67.17000000    18.26000000
   H     79.67000000    66.03000000    19.33000000
   N     79.06000000    64.84000000    16.68000000
   C     78.15000000    64.40000000    15.64000000
   C     77.95000000    62.89000000    15.71000000
   O     78.81000000    62.14000000    16.16000000
   C     78.51000000    64.80000000    14.21000000
   C     77.99000000    66.15000000    13.73000000
   O     79.90000000    64.76000000    14.01000000
   H     79.85000000    64.27000000    16.96000000
   H     77.11000000    64.70000000    15.81000000
   H     78.13000000    64.03000000    13.53000000
   H     80.31000000    64.31000000    14.75000000
   H     78.48000000    66.33000000    12.77000000
   H     76.92000000    66.07000000    13.56000000
   H     78.19000000    66.96000000    14.43000000
   N     76.77000000    62.42000000    15.32000000
   C     76.29000000    61.05000000    15.46000000
   C     75.76000000    60.54000000    14.12000000
   O     74.85000000    61.14000000    13.55000000
   C     75.21000000    61.02000000    16.53000000
   C     75.76000000    61.35000000    17.91000000
   C     74.46000000    59.70000000    16.66000000
   C     74.69000000    61.73000000    18.92000000
   H     76.10000000    63.08000000    14.96000000
   H     77.16000000    60.46000000    15.75000000
   H     74.55000000    61.75000000    16.06000000
   H     76.45000000    62.19000000    17.77000000
   H     76.34000000    60.49000000    18.23000000
   H     73.99000000    59.44000000    15.71000000
   H     75.21000000    58.98000000    17.01000000
   H     73.67000000    59.72000000    17.41000000
   H     75.13000000    62.05000000    19.87000000
   H     74.08000000    62.58000000    18.60000000
   H     74.13000000    60.85000000    19.24000000
   N     76.42000000    59.44000000    13.74000000
   C     76.28000000    58.82000000    12.44000000
   C     75.24000000    57.71000000    12.42000000
   O     74.72000000    57.27000000    13.45000000
   C     77.57000000    58.17000000    11.94000000
   C     78.62000000    59.26000000    11.82000000
   O     78.01000000    57.10000000    12.74000000
   H     77.14000000    59.06000000    14.34000000
   H     75.99000000    59.67000000    11.84000000
   H     77.36000000    57.79000000    10.94000000
   H     78.96000000    56.98000000    12.81000000
   H     78.85000000    59.52000000    12.86000000
   H     79.53000000    58.79000000    11.45000000
   H     78.32000000    60.16000000    11.28000000
   N     74.77000000    57.31000000    11.23000000
   C     73.91000000    56.15000000    11.05000000
   C     74.42000000    54.86000000    11.66000000
   O     73.59000000    54.01000000    12.01000000
   C     73.59000000    55.91000000     9.58000000
   C     72.75000000    57.01000000     8.94000000
   O     74.78000000    55.99000000     8.84000000
   H     75.08000000    57.80000000    10.41000000
   H     72.97000000    56.44000000    11.54000000
   H     73.12000000    54.94000000     9.39000000
   H     74.46000000    55.84000000     7.94000000
   H     72.43000000    56.65000000     7.96000000
   H     71.88000000    56.98000000     9.59000000
   H     73.22000000    57.99000000     8.99000000
   N     75.74000000    54.77000000    11.85000000
   C     76.37000000    53.66000000    12.54000000
   C     76.22000000    53.94000000    14.02000000
   O     75.85000000    53.00000000    14.74000000
   C     77.82000000    53.57000000    12.06000000
   C     78.49000000    52.37000000    12.73000000
   C     79.85000000    52.13000000    12.09000000
   C     80.72000000    51.19000000    12.91000000
   N     81.93000000    50.68000000    12.24000000
   H     76.32000000    55.57000000    11.62000000
   H     75.91000000    52.67000000    12.41000000
   H     78.23000000    54.55000000    12.31000000
   H     77.95000000    53.51000000    10.98000000
   H     77.88000000    51.47000000    12.65000000
   H     78.61000000    52.59000000    13.79000000
   H     80.25000000    53.13000000    11.91000000
   H     79.78000000    51.67000000    11.10000000
   H     80.17000000    50.29000000    13.17000000
   H     81.10000000    51.78000000    13.75000000
   H     82.31000000    51.44000000    11.70000000
   H     82.67000000    50.22000000    12.76000000
   H     81.70000000    50.07000000    11.47000000
   N     76.55000000    55.13000000    14.53000000
   C     76.54000000    55.47000000    15.94000000
   C     75.16000000    55.42000000    16.57000000
   O     75.01000000    55.10000000    17.75000000
   C     77.24000000    56.81000000    16.13000000
   C     78.76000000    56.69000000    16.21000000
   C     79.48000000    58.03000000    16.17000000
   O     79.02000000    58.96000000    15.47000000
   O     80.54000000    58.20000000    16.80000000
   H     76.68000000    55.96000000    13.97000000
   H     77.22000000    54.76000000    16.43000000
   H     76.98000000    57.25000000    17.10000000
   H     76.86000000    57.47000000    15.36000000
   H     79.08000000    56.14000000    15.31000000
   H     79.00000000    56.05000000    17.06000000
   N     74.18000000    55.66000000    15.69000000
   C     72.78000000    55.40000000    15.94000000
   H     72.19200000    55.72000000    15.08000000
   H     72.63200000    54.33300000    16.10400000
   H     72.45900000    55.95200000    16.82400000
   H     74.41000000    55.97000000    14.76000000
  Ca     81.03000000    60.67000000    15.69000000
   O     80.03000000    61.62000000    13.49000000
   H     80.53000000    62.41000000    13.25000000
   H     79.92000000    61.15000000    12.66000000
   O     81.68000000    59.00000000    13.83000000
   H     81.31000000    58.32000000    13.26000000
   H     82.63000000    58.86000000    13.78000000

Ca 1.00



