%chk=loop3.apoCaM-CA-Ng.Init31.run61.water6.chk
%nprocshared=20
%mem=10GB
%nosave
#b3lyp/svp scf=(tight,noincore,xqc) Test 
#IOP(5/87=12) Density=Current Pop=(MK,readradii) iop(6/33=2) iop(6/42=6)

loop3.apoCaM-CA-Ng.Init31.run61.water6 

   0  1 
   C    104.67000000    68.37000000     9.90000000
   C    103.50000000    69.12000000     9.28000000
   O    102.33000000    68.77000000     9.39000000
   H    105.49700000    69.06000000    10.06400000
   H    104.36200000    67.93900000    10.85300000
   H    104.99000000    67.57400000     9.22700000
   N    103.82000000    70.28000000     8.69000000
   C    102.92000000    71.14000000     7.94000000
   C    102.71000000    70.60000000     6.54000000
   O    103.46000000    69.70000000     6.16000000
   C    103.49000000    72.56000000     7.88000000
   C    104.96000000    72.59000000     7.50000000
   O    105.39000000    72.55000000     6.32000000
   O    105.75000000    72.49000000     8.46000000
   H    104.79000000    70.53000000     8.62000000
   H    101.97000000    71.09000000     8.48000000
   H    103.40000000    73.11000000     8.81000000
   H    103.04000000    73.17000000     7.09000000
   N    101.75000000    71.06000000     5.73000000
   C    101.62000000    70.77000000     4.32000000
   C    101.30000000    69.33000000     3.92000000
   O    101.62000000    68.83000000     2.84000000
   C    100.68000000    71.80000000     3.70000000
   C    100.47000000    71.68000000     2.20000000
   C     99.40000000    72.72000000     1.87000000
   C     99.14000000    72.57000000     0.38000000
   N     97.97000000    73.39000000     0.05000000
   H    101.11000000    71.69000000     6.20000000
   H    102.58000000    71.00000000     3.86000000
   H    101.15000000    72.77000000     3.86000000
   H     99.70000000    71.76000000     4.18000000
   H    100.15000000    70.67000000     1.94000000
   H    101.44000000    71.91000000     1.75000000
   H     99.94000000    73.64000000     2.13000000
   H     98.51000000    72.51000000     2.46000000
   H     98.90000000    71.54000000     0.13000000
   H     99.99000000    72.76000000    -0.28000000
   H     97.75000000    73.40000000    -0.93000000
   H     97.15000000    73.22000000     0.62000000
   H     98.17000000    74.37000000     0.18000000
   N    100.58000000    68.63000000     4.79000000
   C    100.22000000    67.22000000     4.75000000
   C     98.99000000    66.90000000     3.91000000
   O     97.92000000    66.49000000     4.34000000
   C    100.17000000    66.65000000     6.16000000
   C     99.35000000    67.36000000     7.24000000
   O     99.36000000    66.93000000     8.41000000
   O     98.83000000    68.46000000     6.97000000
   H    100.44000000    69.08000000     5.68000000
   H    101.07000000    66.71000000     4.31000000
   H    101.22000000    66.67000000     6.45000000
   H     99.89000000    65.60000000     6.13000000
   N     99.07000000    67.34000000     2.65000000
   C     98.06000000    67.54000000     1.63000000
   C     97.26000000    68.82000000     1.81000000
   O     97.66000000    69.67000000     2.61000000
   H    100.02000000    67.55000000     2.38000000
   H     97.29000000    66.76000000     1.63000000
   H     98.51000000    67.51000000     0.64000000
   N     96.12000000    69.08000000     1.17000000
   C     95.55000000    68.29000000     0.10000000
   C     94.13000000    67.82000000     0.36000000
   O     93.44000000    68.51000000     1.11000000
   C     95.56000000    69.13000000    -1.18000000
   C     96.91000000    69.48000000    -1.79000000
   N     96.92000000    69.90000000    -3.06000000
   O     98.00000000    69.38000000    -1.23000000
   H     95.54000000    69.83000000     1.51000000
   H     96.19000000    67.43000000    -0.13000000
   H     95.13000000    70.09000000    -0.88000000
   H     94.99000000    68.72000000    -2.01000000
   H     96.18000000    70.04000000    -3.72000000
   H     97.86000000    70.10000000    -3.37000000
   N     93.44000000    66.81000000    -0.18000000
   C     94.09000000    65.70000000    -0.84000000
   C     94.95000000    64.75000000    -0.03000000
   O     95.52000000    65.18000000     0.97000000
   H     92.45000000    66.87000000     0.01000000
   H     94.74000000    66.07000000    -1.63000000
   H     93.25000000    65.15000000    -1.27000000
   N     95.02000000    63.49000000    -0.46000000
   C     95.70000000    62.35000000     0.14000000
   C     96.45000000    61.51000000    -0.89000000
   O     96.18000000    60.32000000    -0.99000000
   C     94.61000000    61.52000000     0.83000000
   C     93.97000000    62.34000000     1.93000000
   C     94.45000000    62.44000000     3.24000000
   C     92.71000000    62.91000000     1.71000000
   C     93.72000000    63.04000000     4.27000000
   C     91.97000000    63.63000000     2.65000000
   C     92.52000000    63.71000000     3.95000000
   O     91.90000000    64.50000000     4.86000000
   H     94.37000000    63.25000000    -1.18000000
   H     96.41000000    62.69000000     0.89000000
   H     94.95000000    60.64000000     1.37000000
   H     93.92000000    61.31000000     0.01000000
   H     95.44000000    62.04000000     3.43000000
   H     92.24000000    62.73000000     0.76000000
   H     94.21000000    63.12000000     5.24000000
   H     90.98000000    64.01000000     2.44000000
   H     91.09000000    64.87000000     4.48000000
   N     97.26000000    62.19000000    -1.70000000
   C     97.88000000    61.72000000    -2.93000000
   C     98.92000000    60.61000000    -2.84000000
   O     99.66000000    60.29000000    -3.77000000
   C     98.21000000    62.79000000    -3.97000000
   C     96.99000000    63.57000000    -4.47000000
   C     99.31000000    63.74000000    -3.51000000
   C     97.34000000    64.45000000    -5.66000000
   H     97.39000000    63.14000000    -1.38000000
   H     97.03000000    61.23000000    -3.41000000
   H     98.54000000    62.15000000    -4.78000000
   H     96.62000000    64.23000000    -3.68000000
   H     96.17000000    62.96000000    -4.83000000
   H     98.95000000    64.46000000    -2.77000000
   H    100.12000000    63.22000000    -2.99000000
   H     99.79000000    64.32000000    -4.30000000
   H     97.94000000    63.96000000    -6.42000000
   H     96.47000000    64.98000000    -6.06000000
   H     97.96000000    65.27000000    -5.29000000
   N     99.21000000    60.12000000    -1.63000000
   C    100.31000000    59.20000000    -1.45000000
   C    101.66000000    59.91000000    -1.46000000
   O    102.68000000    59.23000000    -1.53000000
   C    100.21000000    58.47000000    -0.11000000
   O    100.56000000    59.23000000     1.02000000
   H     98.70000000    60.42000000    -0.81000000
   H    100.27000000    58.34000000    -2.11000000
   H    100.86000000    57.59000000    -0.07000000
   H     99.20000000    58.08000000    -0.02000000
   H     99.91000000    59.93000000     1.11000000
   N    101.68000000    61.23000000    -1.26000000
   C    102.90000000    62.02000000    -1.20000000
   C    103.30000000    62.17000000     0.26000000
   O    103.63000000    63.25000000     0.75000000
   C    102.55000000    63.37000000    -1.81000000
   H    100.79000000    61.70000000    -1.31000000
   H    103.73000000    61.60000000    -1.76000000
   H    101.62000000    63.79000000    -1.42000000
   H    103.42000000    64.02000000    -1.69000000
   H    102.44000000    63.25000000    -2.89000000
   N    103.28000000    61.09000000     1.04000000
   C    103.82000000    61.10000000     2.38000000
   C    103.12000000    61.83000000     3.52000000
   O    103.68000000    61.93000000     4.61000000
   C    105.33000000    61.31000000     2.30000000
   H    102.84000000    60.27000000     0.65000000
   H    103.79000000    60.04000000     2.62000000
   H    105.71000000    60.87000000     1.38000000
   H    105.57000000    62.37000000     2.31000000
   H    105.79000000    60.78000000     3.14000000
   N    101.86000000    62.25000000     3.37000000
   C    101.01000000    62.64000000     4.47000000
   C    100.55000000    61.45000000     5.29000000
   O    100.35000000    61.54000000     6.50000000
   C     99.84000000    63.51000000     4.00000000
   C     98.82000000    62.79000000     3.13000000
   C     99.29000000    62.51000000     1.71000000
   O     99.06000000    61.38000000     1.22000000
   O     99.84000000    63.45000000     1.10000000
   H    101.52000000    62.36000000     2.42000000
   H    101.52000000    63.24000000     5.23000000
   H    100.25000000    64.38000000     3.48000000
   H     99.29000000    63.78000000     4.90000000
   H     97.96000000    63.44000000     2.98000000
   H     98.50000000    61.83000000     3.53000000
   N    100.38000000    60.31000000     4.60000000
   C     99.98000000    59.08000000     5.24000000
   H     98.98600000    58.79700000     4.89300000
   H    100.69000000    58.29200000     4.98900000
   H     99.96100000    59.22200000     6.32100000
   H    100.69000000    60.32000000     3.64000000
  Ca     97.59000000    68.46000000     9.50000000
   O     99.49000000    70.24000000     8.94000000
   H     99.15000000    71.14000000     8.98000000
   H     99.51000000    70.03000000     8.01000000
   O     97.15000000    66.21000000    10.85000000
   H     96.47000000    65.79000000    10.32000000
   H     97.53000000    65.50000000    11.36000000
   O    100.22100000    68.23000000    11.11000000
   H    100.84100000    68.40000000    10.40000000
   H    100.30100000    68.99000000    11.68000000
   O     95.97000000    66.78000000     8.31000000
   H     95.49000000    67.18000000     7.58000000
   H     95.56000000    65.92000000     8.43000000
   O     95.96000000    70.23000000     8.14000000
   H     96.18000000    70.64000000     7.30000000
   H     95.29000000    70.80000000     8.51000000
   O     95.09000000    68.32000000    10.56000000
   H     94.58000000    69.13000000    10.49000000
   H     94.44000000    67.63000000    10.66000000

Ca 1.00



