%chk=loop3.holoCaM-CaMKII.run35.water1.chk
%nprocshared=20
%mem=10GB
%nosave
#b3lyp/svp scf=(tight,noincore,xqc) Test 
#IOP(5/87=12) Density=Current Pop=(MK,readradii) iop(6/33=2) iop(6/42=6)

loop3.holoCaM-CaMKII.run35.water1 

   0  1 
   C     94.25000000    46.92000000    27.28200000
   C     95.08000000    46.86000000    28.55200000
   O     95.73000000    45.84000000    28.76200000
   H     93.35700000    47.51900000    27.46000000
   H     94.83800000    47.37300000    26.48400000
   H     93.95700000    45.91100000    26.99000000
   N     95.07000000    47.86000000    29.43200000
   C     95.93000000    47.92000000    30.60200000
   C     95.13000000    47.34000000    31.76200000
   O     94.60000000    47.97000000    32.67200000
   C     96.37000000    49.36000000    30.82200000
   C     97.11000000    49.48000000    32.14200000
   O     97.72000000    48.53000000    32.69200000
   O     97.12000000    50.59000000    32.71200000
   H     94.69000000    48.75000000    29.13200000
   H     96.77000000    47.24000000    30.44200000
   H     95.47000000    49.97000000    30.93200000
   H     96.89000000    49.70000000    29.92200000
   N     94.85000000    46.05000000    31.54200000
   C     93.86000000    45.31000000    32.30200000
   C     94.01000000    45.28000000    33.82200000
   O     93.00000000    45.30000000    34.52200000
   C     93.88000000    43.90000000    31.71200000
   C     93.36000000    43.82000000    30.28200000
   C     93.11000000    42.39000000    29.82200000
   C     92.00000000    41.59000000    30.48200000
   N     90.65000000    42.02000000    30.09200000
   H     95.15000000    45.68000000    30.66200000
   H     92.88000000    45.74000000    32.14200000
   H     93.36000000    43.18000000    32.34200000
   H     94.91000000    43.54000000    31.69200000
   H     93.97000000    44.42000000    29.61200000
   H     92.36000000    44.25000000    30.36200000
   H     94.06000000    41.85000000    29.86200000
   H     92.95000000    42.42000000    28.74200000
   H     92.14000000    41.64000000    31.56200000
   H     92.15000000    40.53000000    30.24200000
   H     89.91000000    41.69000000    30.71200000
   H     90.66000000    43.03000000    30.13200000
   H     90.32000000    41.66000000    29.21200000
   N     95.27000000    45.40000000    34.25200000
   C     95.63000000    45.57000000    35.64200000
   C     95.53000000    47.00000000    36.14200000
   O     95.46000000    47.24000000    37.34200000
   C     96.98000000    44.94000000    35.94200000
   C     98.02000000    45.27000000    34.88200000
   O     98.43000000    44.39000000    34.09200000
   O     98.41000000    46.44000000    34.68200000
   H     95.98000000    45.29000000    33.54200000
   H     94.97000000    45.04000000    36.33200000
   H     96.91000000    43.86000000    36.04200000
   H     97.27000000    45.19000000    36.96200000
   N     95.51000000    47.99000000    35.23200000
   C     95.68000000    49.40000000    35.51200000
   C     97.05000000    49.97000000    35.84200000
   O     97.17000000    51.13000000    36.23200000
   H     95.55000000    47.73000000    34.26200000
   H     95.02000000    49.64000000    36.35200000
   H     95.34000000    49.77000000    34.54200000
   N     98.13000000    49.18000000    35.73200000
   C     99.46000000    49.62000000    36.07200000
   C    100.02000000    50.78000000    35.27200000
   O    101.01000000    51.34000000    35.73200000
   C    100.37000000    48.39000000    36.17200000
   C    101.26000000    48.25000000    34.94200000
   N    102.54000000    48.59000000    35.11200000
   O    100.87000000    47.98000000    33.81200000
   H     98.09000000    48.23000000    35.40200000
   H     99.35000000    50.07000000    37.06200000
   H     99.81000000    47.47000000    36.35200000
   H    101.04000000    48.42000000    37.03200000
   H    102.92000000    48.77000000    36.03200000
   H    103.25000000    48.24000000    34.47200000
   N     99.39000000    51.20000000    34.17200000
   C     99.90000000    52.28000000    33.34200000
   C    100.68000000    51.95000000    32.08200000
   O    101.08000000    52.96000000    31.50200000
   H     98.61000000    50.65000000    33.83200000
   H    100.59000000    52.93000000    33.87200000
   H     99.09000000    52.92000000    32.98200000
   N    100.80000000    50.69000000    31.63200000
   C    101.52000000    50.26000000    30.45200000
   C    100.88000000    48.96000000    29.96200000
   O    100.54000000    48.12000000    30.79200000
   C    102.99000000    50.03000000    30.77200000
   C    103.74000000    51.10000000    31.52200000
   C    104.48000000    52.08000000    30.84200000
   C    103.76000000    51.16000000    32.92200000
   C    105.12000000    53.12000000    31.52200000
   C    104.36000000    52.19000000    33.66200000
   C    105.00000000    53.21000000    32.92200000
   O    105.55000000    54.33000000    33.46200000
   H    100.32000000    50.02000000    32.21200000
   H    101.36000000    51.00000000    29.68200000
   H    103.46000000    49.98000000    29.78200000
   H    103.02000000    49.07000000    31.29200000
   H    104.52000000    52.14000000    29.77200000
   H    103.33000000    50.32000000    33.43200000
   H    105.66000000    53.95000000    31.08200000
   H    104.43000000    52.34000000    34.73200000
   H    105.37000000    54.47000000    34.39200000
   N    100.70000000    48.86000000    28.64200000
   C    100.21000000    47.72000000    27.90200000
   C    101.41000000    46.83000000    27.62200000
   O    102.44000000    47.36000000    27.21200000
   C     99.35000000    48.00000000    26.66200000
   C     98.38000000    49.17000000    26.72200000
   C     98.70000000    46.65000000    26.37200000
   C     97.63000000    49.48000000    25.43200000
   H    101.03000000    49.70000000    28.17200000
   H     99.56000000    47.15000000    28.56200000
   H     99.96000000    48.22000000    25.78200000
   H     99.01000000    50.06000000    26.87200000
   H     97.76000000    49.03000000    27.60200000
   H     98.10000000    46.33000000    27.22200000
   H     98.08000000    46.71000000    25.48200000
   H     99.36000000    45.84000000    26.04200000
   H     97.01000000    48.68000000    25.04200000
   H     97.03000000    50.40000000    25.49200000
   H     98.38000000    49.61000000    24.65200000
   N    101.29000000    45.53000000    27.87200000
   C    102.32000000    44.56000000    27.55200000
   C    101.77000000    43.39000000    26.74200000
   O    100.56000000    43.27000000    26.57200000
   C    102.92000000    44.07000000    28.86200000
   O    101.94000000    43.35000000    29.58200000
   H    100.42000000    45.19000000    28.26200000
   H    103.11000000    45.02000000    26.96200000
   H    103.34000000    44.81000000    29.54200000
   H    103.69000000    43.32000000    28.67200000
   H    101.25000000    43.95000000    29.87200000
   N    102.66000000    42.53000000    26.24200000
   C    102.30000000    41.63000000    25.17200000
   C    101.32000000    40.56000000    25.64200000
   O    100.49000000    40.13000000    24.84200000
   C    103.54000000    41.00000000    24.55200000
   H    103.66000000    42.65000000    26.37200000
   H    101.91000000    42.20000000    24.33200000
   H    104.28000000    41.77000000    24.31200000
   H    103.88000000    40.26000000    25.28200000
   H    103.39000000    40.47000000    23.61200000
   N    101.30000000    40.05000000    26.87200000
   C    100.31000000    39.09000000    27.33200000
   C     98.92000000    39.69000000    27.54200000
   O     97.94000000    38.96000000    27.63200000
   C    100.83000000    38.36000000    28.56200000
   H    102.10000000    40.25000000    27.46200000
   H    100.26000000    38.35000000    26.53200000
   H    101.72000000    37.84000000    28.20200000
   H    100.94000000    39.14000000    29.31200000
   H    100.09000000    37.64000000    28.90200000
   N     98.81000000    41.00000000    27.78200000
   C     97.55000000    41.70000000    27.83200000
   C     97.08000000    42.01000000    26.41200000
   O     95.90000000    41.97000000    26.06200000
   C     97.74000000    43.00000000    28.60200000
   C     97.99000000    42.94000000    30.11200000
   C     98.39000000    44.35000000    30.54200000
   O     97.62000000    45.00000000    31.28200000
   O     99.54000000    44.78000000    30.32200000
   H     99.67000000    41.53000000    27.71200000
   H     96.75000000    41.13000000    28.30200000
   H     96.88000000    43.67000000    28.49200000
   H     98.60000000    43.55000000    28.21200000
   H     98.97000000    42.49000000    30.25200000
   H     97.16000000    42.48000000    30.64200000
   N     97.97000000    42.45000000    25.52200000
   C     97.60000000    42.70000000    24.15200000
   H     96.76000000    43.39400000    24.12400000
   H     98.44700000    43.13300000    23.62000000
   H     97.31200000    41.76300000    23.67600000
   H     98.94000000    42.52000000    25.80200000
  Ca     99.40000000    46.41000000    32.36000000
   O    101.95800000    45.88000000    32.28000000
   H    102.47800000    46.68000000    32.33000000
   H    102.59800000    45.18000000    32.23000000

Ca 1.00



