%chk=loop3.apoCaM-CA-Ng.Init295.run19.water3.chk
%nprocshared=20
%mem=10GB
%nosave
#b3lyp/svp scf=(tight,noincore,xqc) Test 
#IOP(5/87=12) Density=Current Pop=(MK,readradii) iop(6/33=2) iop(6/42=6)

loop3.apoCaM-CA-Ng.Init295.run19.water3 

   0  1 
   C     97.91000000    37.63000000    53.60000000
   C     98.78000000    38.05000000    54.78000000
   O     98.29000000    38.06000000    55.90000000
   H     97.01700000    38.25400000    53.56800000
   H     98.47100000    37.75200000    52.67300000
   H     97.62000000    36.58600000    53.71500000
   N    100.06000000    38.28000000    54.47000000
   C    101.04000000    39.01000000    55.25000000
   C    102.05000000    39.62000000    54.29000000
   O    102.48000000    38.94000000    53.35000000
   C    101.67000000    38.09000000    56.30000000
   C    102.58000000    38.87000000    57.24000000
   O    102.09000000    39.21000000    58.33000000
   O    103.73000000    39.22000000    56.88000000
   H    100.27000000    37.98000000    53.53000000
   H    100.55000000    39.81000000    55.80000000
   H    102.35000000    37.38000000    55.84000000
   H    100.93000000    37.52000000    56.86000000
   N    102.40000000    40.89000000    54.49000000
   C    103.23000000    41.79000000    53.71000000
   C    104.64000000    41.23000000    53.56000000
   O    105.09000000    41.11000000    52.43000000
   C    103.16000000    43.18000000    54.34000000
   C    101.76000000    43.79000000    54.33000000
   C    101.65000000    45.29000000    54.59000000
   C    100.14000000    45.52000000    54.66000000
   N     99.82000000    46.89000000    55.07000000
   H    102.03000000    41.29000000    55.34000000
   H    102.77000000    41.83000000    52.72000000
   H    103.92000000    43.75000000    53.80000000
   H    103.61000000    43.24000000    55.33000000
   H    101.18000000    43.14000000    54.99000000
   H    101.26000000    43.62000000    53.38000000
   H    102.16000000    45.89000000    53.84000000
   H    101.92000000    45.54000000    55.61000000
   H     99.77000000    44.67000000    55.23000000
   H     99.72000000    45.29000000    53.67000000
   H    100.36000000    47.62000000    54.63000000
   H     98.84000000    47.03000000    54.87000000
   H     99.99000000    47.07000000    56.05000000
   N    105.24000000    40.78000000    54.67000000
   C    106.54000000    40.15000000    54.60000000
   C    106.37000000    38.65000000    54.48000000
   O    107.38000000    38.06000000    54.08000000
   C    107.36000000    40.59000000    55.81000000
   C    106.54000000    40.55000000    57.09000000
   O    106.45000000    39.52000000    57.78000000
   O    105.82000000    41.52000000    57.44000000
   H    104.69000000    40.87000000    55.51000000
   H    107.16000000    40.47000000    53.76000000
   H    107.85000000    41.51000000    55.50000000
   H    108.15000000    39.86000000    55.99000000
   N    105.19000000    38.07000000    54.70000000
   C    105.00000000    36.65000000    54.47000000
   C    105.27000000    35.81000000    55.70000000
   O    105.51000000    34.61000000    55.57000000
   H    104.38000000    38.58000000    55.03000000
   H    105.64000000    36.33000000    53.64000000
   H    103.99000000    36.44000000    54.13000000
   N    105.26000000    36.43000000    56.89000000
   C    105.19000000    35.74000000    58.16000000
   C    104.20000000    36.42000000    59.09000000
   O    104.29000000    37.61000000    59.39000000
   C    106.56000000    35.60000000    58.83000000
   C    106.62000000    34.79000000    60.11000000
   N    107.70000000    34.73000000    60.90000000
   O    105.61000000    34.30000000    60.62000000
   H    105.04000000    37.41000000    56.78000000
   H    104.70000000    34.80000000    57.95000000
   H    106.93000000    36.61000000    59.01000000
   H    107.20000000    35.05000000    58.15000000
   H    108.54000000    35.11000000    60.51000000
   H    107.69000000    34.13000000    61.72000000
   N    103.08000000    35.76000000    59.39000000
   C    101.81000000    36.16000000    59.97000000
   C    101.81000000    36.99000000    61.25000000
   O    100.72000000    37.37000000    61.66000000
   H    102.87000000    34.90000000    58.91000000
   H    101.25000000    35.24000000    60.15000000
   H    101.23000000    36.77000000    59.27000000
   N    102.92000000    37.36000000    61.90000000
   C    103.01000000    38.15000000    63.10000000
   C    102.98000000    39.65000000    62.82000000
   O    103.37000000    39.99000000    61.71000000
   C    104.30000000    37.75000000    63.81000000
   C    104.35000000    36.28000000    64.18000000
   C    105.24000000    35.47000000    63.47000000
   C    103.69000000    35.80000000    65.32000000
   C    105.26000000    34.09000000    63.75000000
   C    103.79000000    34.44000000    65.66000000
   C    104.55000000    33.58000000    64.85000000
   O    104.63000000    32.25000000    65.15000000
   H    103.75000000    37.08000000    61.40000000
   H    102.21000000    37.84000000    63.78000000
   H    104.36000000    38.32000000    64.74000000
   H    105.18000000    37.91000000    63.19000000
   H    105.73000000    35.90000000    62.61000000
   H    103.17000000    36.46000000    65.99000000
   H    105.85000000    33.41000000    63.15000000
   H    103.32000000    34.04000000    66.55000000
   H    104.19000000    31.98000000    65.96000000
   N    102.54000000    40.47000000    63.78000000
   C    102.07000000    41.84000000    63.73000000
   C    103.12000000    42.95000000    63.66000000
   O    104.06000000    42.88000000    62.88000000
   C    100.78000000    42.10000000    62.96000000
   C     99.83000000    40.91000000    63.07000000
   C    101.16000000    42.32000000    61.49000000
   C     98.39000000    41.31000000    62.77000000
   H    102.27000000    39.98000000    64.62000000
   H    101.70000000    41.90000000    64.75000000
   H    100.27000000    42.90000000    63.49000000
   H     99.84000000    40.38000000    64.02000000
   H    100.20000000    40.18000000    62.36000000
   H    101.74000000    43.24000000    61.42000000
   H    101.70000000    41.48000000    61.07000000
   H    100.26000000    42.57000000    60.93000000
   H     97.98000000    41.87000000    63.61000000
   H     98.34000000    41.81000000    61.80000000
   H     97.86000000    40.36000000    62.64000000
   N    102.89000000    43.99000000    64.47000000
   C    103.74000000    45.15000000    64.53000000
   C    104.22000000    45.38000000    65.96000000
   O    105.34000000    45.86000000    66.12000000
   C    103.09000000    46.38000000    63.91000000
   O    102.03000000    46.93000000    64.66000000
   H    102.13000000    43.89000000    65.13000000
   H    104.70000000    44.89000000    64.09000000
   H    102.75000000    46.04000000    62.93000000
   H    103.91000000    47.09000000    63.88000000
   H    101.82000000    47.77000000    64.25000000
   N    103.34000000    45.02000000    66.90000000
   C    103.43000000    45.07000000    68.35000000
   C    104.34000000    46.18000000    68.86000000
   O    105.33000000    45.88000000    69.52000000
   C    103.75000000    43.68000000    68.90000000
   H    102.42000000    44.84000000    66.52000000
   H    102.43000000    45.30000000    68.71000000
   H    103.82000000    43.58000000    69.98000000
   H    102.93000000    43.07000000    68.53000000
   H    104.73000000    43.33000000    68.58000000
   N    103.94000000    47.45000000    68.71000000
   C    102.88000000    48.09000000    67.96000000
   C    101.89000000    48.78000000    68.89000000
   O    102.24000000    49.22000000    69.98000000
   C    103.54000000    49.06000000    66.98000000
   H    104.40000000    48.14000000    69.29000000
   H    102.36000000    47.35000000    67.35000000
   H    104.10000000    48.60000000    66.17000000
   H    102.74000000    49.70000000    66.58000000
   H    104.12000000    49.72000000    67.62000000
   N    100.64000000    49.05000000    68.50000000
   C     99.98000000    48.36000000    67.41000000
   C     99.06000000    47.20000000    67.76000000
   O     99.14000000    46.12000000    67.18000000
   C     99.12000000    49.35000000    66.64000000
   C     98.60000000    48.78000000    65.32000000
   C     98.17000000    49.94000000    64.43000000
   O     98.99000000    50.45000000    63.63000000
   O     97.04000000    50.43000000    64.65000000
   H    100.03000000    49.49000000    69.17000000
   H    100.74000000    47.91000000    66.76000000
   H     99.80000000    50.18000000    66.45000000
   H     98.32000000    49.72000000    67.28000000
   H     97.73000000    48.16000000    65.51000000
   H     99.40000000    48.14000000    64.94000000
   N     98.28000000    47.33000000    68.83000000
   C     97.27000000    46.37000000    69.23000000
   H     96.36600000    46.52900000    68.64300000
   H     97.64100000    45.35900000    69.05900000
   H     97.04300000    46.50000000    70.28800000
   H     98.26000000    48.28000000    69.18000000
  Ca    104.26700000    40.25000000    59.17000000
   O    104.53700000    42.62000000    60.21000000
   H    104.59700000    42.75000000    61.16000000
   H    104.55700000    43.51000000    59.85000000
   O    102.81700000    42.00000000    57.83000000
   H    103.12700000    42.82000000    57.44000000
   H    101.86700000    42.10000000    57.87000000
   O    106.27700000    39.94000000    61.08000000
   H    106.20700000    40.29000000    61.97000000
   H    107.09700000    39.46000000    61.08000000

Ca 1.00



