%chk=loop3.apoCaM-CA-Ng.Init293.run57.water5.chk
%nprocshared=20
%mem=10GB
%nosave
#b3lyp/svp scf=(tight,noincore,xqc) Test 
#IOP(5/87=12) Density=Current Pop=(MK,readradii) iop(6/33=2) iop(6/42=6)

loop3.apoCaM-CA-Ng.Init293.run57.water5 

   0  1 
   C     43.37000000    78.80000000    66.48000000
   C     43.37000000    78.90000000    64.96000000
   O     43.92000000    79.91000000    64.52000000
   H     44.31800000    78.38100000    66.81600000
   H     43.24000000    79.79300000    66.91000000
   H     42.55300000    78.15400000    66.80200000
   N     42.66000000    78.01000000    64.27000000
   C     42.61000000    77.94000000    62.82000000
   C     42.67000000    76.50000000    62.34000000
   O     42.33000000    75.54000000    63.02000000
   C     41.40000000    78.74000000    62.35000000
   C     41.19000000    78.76000000    60.84000000
   O     42.21000000    78.82000000    60.12000000
   O     40.03000000    78.76000000    60.39000000
   H     42.30000000    77.20000000    64.75000000
   H     43.46000000    78.51000000    62.45000000
   H     41.37000000    79.78000000    62.66000000
   H     40.53000000    78.21000000    62.75000000
   N     43.16000000    76.33000000    61.10000000
   C     43.16000000    75.16000000    60.25000000
   C     41.77000000    74.71000000    59.83000000
   O     40.76000000    75.06000000    60.43000000
   C     44.10000000    74.05000000    60.71000000
   C     45.50000000    74.57000000    60.97000000
   C     46.27000000    75.07000000    59.75000000
   C     47.65000000    75.58000000    60.17000000
   N     48.44000000    76.12000000    59.05000000
   H     43.30000000    77.20000000    60.60000000
   H     43.57000000    75.54000000    59.31000000
   H     44.18000000    73.21000000    60.02000000
   H     43.62000000    73.64000000    61.60000000
   H     46.12000000    73.82000000    61.47000000
   H     45.51000000    75.41000000    61.66000000
   H     45.69000000    75.87000000    59.29000000
   H     46.25000000    74.19000000    59.10000000
   H     48.11000000    74.71000000    60.63000000
   H     47.64000000    76.31000000    60.97000000
   H     48.59000000    75.43000000    58.33000000
   H     47.92000000    76.87000000    58.62000000
   H     49.37000000    76.41000000    59.30000000
   N     41.64000000    73.78000000    58.89000000
   C     40.41000000    73.28000000    58.30000000
   C     39.92000000    72.05000000    59.06000000
   O     39.68000000    70.99000000    58.50000000
   C     40.58000000    73.01000000    56.81000000
   C     41.54000000    71.97000000    56.25000000
   O     42.50000000    71.51000000    56.92000000
   O     41.53000000    71.67000000    55.04000000
   H     42.46000000    73.28000000    58.56000000
   H     39.61000000    74.02000000    58.28000000
   H     40.76000000    73.92000000    56.24000000
   H     39.60000000    72.61000000    56.55000000
   N     39.81000000    72.08000000    60.39000000
   C     39.34000000    70.97000000    61.20000000
   C     37.87000000    70.66000000    60.97000000
   O     37.03000000    71.55000000    60.95000000
   H     40.23000000    72.83000000    60.92000000
   H     39.32000000    71.24000000    62.26000000
   H     39.97000000    70.09000000    61.07000000
   N     37.60000000    69.35000000    60.88000000
   C     36.36000000    68.75000000    60.44000000
   C     36.23000000    67.30000000    60.87000000
   O     37.17000000    66.51000000    60.76000000
   C     36.21000000    68.87000000    58.93000000
   C     34.85000000    68.36000000    58.46000000
   N     33.74000000    68.94000000    58.93000000
   O     34.76000000    67.44000000    57.65000000
   H     38.42000000    68.77000000    60.99000000
   H     35.61000000    69.39000000    60.92000000
   H     36.96000000    68.19000000    58.54000000
   H     36.34000000    69.87000000    58.50000000
   H     33.82000000    69.73000000    59.55000000
   H     32.85000000    68.68000000    58.53000000
   N     35.06000000    66.89000000    61.38000000
   C     34.77000000    65.55000000    61.85000000
   C     35.45000000    65.23000000    63.18000000
   O     35.79000000    66.07000000    64.00000000
   H     34.32000000    67.55000000    61.58000000
   H     35.19000000    64.86000000    61.12000000
   H     33.72000000    65.36000000    62.04000000
   N     35.68000000    63.93000000    63.38000000
   C     36.51000000    63.33000000    64.41000000
   C     37.99000000    63.66000000    64.25000000
   O     38.82000000    63.14000000    64.99000000
   C     35.94000000    63.54000000    65.81000000
   C     34.55000000    63.00000000    66.04000000
   C     33.54000000    63.95000000    66.24000000
   C     34.18000000    61.66000000    66.19000000
   C     32.22000000    63.62000000    66.59000000
   C     32.86000000    61.30000000    66.50000000
   C     31.84000000    62.26000000    66.66000000
   O     30.58000000    61.99000000    67.10000000
   H     35.36000000    63.34000000    62.64000000
   H     36.38000000    62.25000000    64.29000000
   H     35.95000000    64.59000000    66.10000000
   H     36.68000000    63.16000000    66.51000000
   H     33.89000000    64.97000000    66.22000000
   H     34.89000000    60.85000000    66.08000000
   H     31.54000000    64.43000000    66.79000000
   H     32.60000000    60.25000000    66.52000000
   H     30.43000000    61.04000000    67.21000000
   N     38.37000000    64.54000000    63.32000000
   C     39.73000000    64.77000000    62.87000000
   C     40.48000000    63.60000000    62.27000000
   O     41.03000000    63.73000000    61.17000000
   C     40.58000000    65.49000000    63.91000000
   C     39.97000000    66.69000000    64.62000000
   C     41.94000000    65.89000000    63.33000000
   C     39.31000000    67.77000000    63.77000000
   H     37.63000000    64.95000000    62.77000000
   H     39.70000000    65.48000000    62.04000000
   H     40.81000000    64.75000000    64.68000000
   H     40.74000000    67.07000000    65.30000000
   H     39.18000000    66.20000000    65.20000000
   H     42.53000000    65.00000000    63.14000000
   H     41.77000000    66.42000000    62.39000000
   H     42.41000000    66.49000000    64.10000000
   H     39.15000000    68.64000000    64.42000000
   H     39.90000000    68.03000000    62.90000000
   H     38.33000000    67.45000000    63.41000000
   N     40.38000000    62.38000000    62.81000000
   C     40.94000000    61.13000000    62.37000000
   C     42.46000000    61.15000000    62.31000000
   O     43.01000000    60.92000000    61.23000000
   C     40.46000000    60.01000000    63.28000000
   O     40.57000000    60.40000000    64.64000000
   H     39.71000000    62.41000000    63.57000000
   H     40.53000000    60.88000000    61.39000000
   H     41.14000000    59.18000000    63.08000000
   H     39.47000000    59.61000000    63.06000000
   H     40.31000000    59.63000000    65.16000000
   N     43.16000000    61.42000000    63.42000000
   C     44.60000000    61.41000000    63.53000000
   C     45.38000000    62.19000000    62.49000000
   O     46.56000000    61.92000000    62.29000000
   C     45.04000000    59.96000000    63.71000000
   H     42.62000000    61.55000000    64.27000000
   H     44.90000000    61.90000000    64.46000000
   H     46.07000000    60.06000000    64.05000000
   H     44.54000000    59.55000000    64.58000000
   H     44.97000000    59.31000000    62.83000000
   N     44.75000000    63.18000000    61.85000000
   C     45.27000000    63.84000000    60.67000000
   C     45.84000000    65.23000000    60.92000000
   O     45.49000000    65.96000000    61.85000000
   C     44.11000000    63.95000000    59.68000000
   H     43.84000000    63.46000000    62.20000000
   H     46.10000000    63.28000000    60.25000000
   H     44.38000000    64.56000000    58.83000000
   H     43.79000000    62.94000000    59.43000000
   H     43.29000000    64.39000000    60.24000000
   N     46.78000000    65.67000000    60.08000000
   C     47.47000000    66.93000000    59.93000000
   C     47.97000000    67.49000000    61.26000000
   O     48.20000000    68.69000000    61.35000000
   C     46.70000000    67.88000000    59.02000000
   C     46.13000000    67.31000000    57.72000000
   C     45.16000000    68.27000000    57.03000000
   O     45.19000000    69.50000000    57.23000000
   O     44.37000000    67.91000000    56.14000000
   H     47.00000000    64.96000000    59.39000000
   H     48.40000000    66.78000000    59.38000000
   H     47.21000000    68.81000000    58.77000000
   H     45.77000000    68.16000000    59.52000000
   H     45.51000000    66.42000000    57.86000000
   H     46.94000000    67.04000000    57.05000000
   N     48.24000000    66.66000000    62.27000000
   C     48.45000000    67.02000000    63.65000000
   H     49.17300000    67.83300000    63.70700000
   H     47.50600000    67.34300000    64.09000000
   H     48.83000000    66.15700000    64.19700000
   H     48.15000000    65.68000000    62.03000000
  Ca     43.78000000    70.23000000    55.06000000
   O     43.86000000    72.04000000    52.92000000
   H     43.78000000    72.95000000    52.64000000
   H     44.79000000    71.84000000    52.85000000
   O     43.80000000    69.08000000    52.68000000
   H     43.09000000    68.48000000    52.47000000
   H     44.59000000    68.64000000    52.35000000
   O     46.15000000    69.59000000    54.06000000
   H     46.75000000    68.84000000    53.98000000
   H     46.33000000    70.11000000    53.28000000
   O     45.16000000    72.35000000    56.06000000
   H     45.56000000    73.18000000    55.77000000
   H     45.31000000    72.33000000    57.00000000
   O     41.77000000    68.61000000    55.06000000
   H     42.00000000    67.70000000    55.27000000
   H     40.95000000    68.76000000    55.53000000

Ca 1.00



