%chk=loop2.apoCaM-CA-Ng.Init293.run54.water6.chk
%nprocshared=20
%mem=10GB
%nosave
#b3lyp/svp scf=(tight,noincore,xqc) Test 
#IOP(5/87=12) Density=Current Pop=(MK,readradii) iop(6/33=2) iop(6/42=6)

loop2.apoCaM-CA-Ng.Init293.run54.water6 

   -2  1 
   C     63.62000000    99.65000000    98.03000000
   C     64.88000000    99.93000000    98.84000000
   O     64.85000000    99.49000000    99.99000000
   H     62.85000000   100.37500000    98.29500000
   H     63.84500000    99.73200000    96.96700000
   H     63.26200000    98.64400000    98.25000000
   N     65.83000000   100.72000000    98.34000000
   C     67.01000000   101.13000000    99.08000000
   C     66.65000000   102.21000000   100.09000000
   O     67.21000000   102.37000000   101.17000000
   C     67.99000000   101.73000000    98.08000000
   C     69.25000000   102.31000000    98.71000000
   O     69.49000000   103.53000000    98.66000000
   O     70.05000000   101.41000000    99.04000000
   H     65.71000000   101.08000000    97.40000000
   H     67.51000000   100.28000000    99.54000000
   H     67.48000000   102.56000000    97.58000000
   H     68.23000000   101.06000000    97.25000000
   N     65.65000000   103.01000000    99.70000000
   C     65.26000000   104.18000000   100.45000000
   C     64.88000000   103.86000000   101.89000000
   O     65.15000000   104.61000000   102.83000000
   C     66.34000000   105.25000000   100.27000000
   H     65.20000000   102.81000000    98.82000000
   H     64.38000000   104.60000000    99.96000000
   H     66.54000000   105.41000000    99.22000000
   H     66.09000000   106.19000000   100.75000000
   H     67.27000000   104.91000000   100.73000000
   N     64.21000000   102.72000000   102.07000000
   C     63.86000000   102.11000000   103.34000000
   C     65.00000000   101.96000000   104.33000000
   O     64.85000000   101.83000000   105.55000000
   C     62.60000000   102.75000000   103.91000000
   C     61.44000000   102.82000000   102.93000000
   O     61.11000000   101.79000000   102.31000000
   O     60.79000000   103.86000000   102.69000000
   H     64.11000000   102.18000000   101.22000000
   H     63.65000000   101.07000000   103.09000000
   H     62.74000000   103.72000000   104.39000000
   H     62.30000000   102.12000000   104.74000000
   N     66.22000000   101.86000000   103.78000000
   C     67.45000000   101.50000000   104.45000000
   C     67.40000000   100.20000000   105.24000000
   O     66.74000000    99.23000000   104.87000000
   H     66.29000000   102.06000000   102.80000000
   H     67.62000000   102.33000000   105.14000000
   H     68.25000000   101.38000000   103.72000000
   N     68.01000000   100.21000000   106.43000000
   C     68.02000000    99.11000000   107.37000000
   C     68.39000000    97.75000000   106.81000000
   O     67.74000000    96.73000000   107.06000000
   C     66.77000000    99.25000000   108.24000000
   C     66.78000000   100.53000000   109.06000000
   N     65.59000000   101.13000000   109.20000000
   O     67.81000000   101.00000000   109.55000000
   H     68.43000000   101.05000000   106.79000000
   H     68.92000000    99.30000000   107.96000000
   H     66.98000000    98.43000000   108.93000000
   H     65.84000000    99.13000000   107.69000000
   H     64.79000000   100.65000000   108.82000000
   H     65.50000000   101.81000000   109.94000000
   N     69.40000000    97.79000000   105.94000000
   C     69.94000000    96.59000000   105.34000000
   C     69.12000000    96.03000000   104.19000000
   O     69.59000000    95.17000000   103.44000000
   H     69.93000000    98.61000000   105.67000000
   H     70.01000000    95.78000000   106.06000000
   H     70.92000000    96.83000000   104.93000000
   N     67.92000000    96.55000000   103.94000000
   C     67.12000000    96.29000000   102.75000000
   C     65.86000000    95.54000000   103.14000000
   O     65.36000000    95.49000000   104.26000000
   C     66.97000000    97.61000000   102.01000000
   C     68.29000000    98.21000000   101.54000000
   O     66.30000000    97.36000000   100.79000000
   H     67.50000000    97.17000000   104.61000000
   H     67.76000000    95.75000000   102.06000000
   H     66.41000000    98.39000000   102.53000000
   H     65.94000000    98.25000000   100.76000000
   H     68.81000000    98.46000000   102.47000000
   H     68.81000000    97.52000000   100.88000000
   H     68.10000000    99.18000000   101.10000000
   N     65.22000000    94.86000000   102.19000000
   C     63.93000000    94.22000000   102.36000000
   C     62.83000000    95.27000000   102.49000000
   O     62.85000000    96.42000000   102.06000000
   C     63.68000000    93.29000000   101.19000000
   C     63.94000000    94.01000000    99.87000000
   C     64.43000000    91.97000000   101.38000000
   C     63.20000000    93.35000000    98.70000000
   H     65.63000000    94.69000000   101.28000000
   H     63.87000000    93.63000000   103.28000000
   H     62.62000000    93.04000000   101.19000000
   H     64.98000000    93.94000000    99.57000000
   H     63.73000000    95.08000000    99.94000000
   H     64.22000000    91.26000000   100.59000000
   H     65.50000000    92.02000000   101.59000000
   H     63.92000000    91.53000000   102.24000000
   H     63.45000000    92.29000000    98.66000000
   H     62.14000000    93.53000000    98.85000000
   H     63.52000000    93.84000000    97.78000000
   N     61.77000000    94.91000000   103.23000000
   C     60.70000000    95.80000000   103.65000000
   C     60.61000000    96.04000000   105.15000000
   O     59.61000000    95.87000000   105.85000000
   C     59.39000000    95.36000000   103.01000000
   C     58.36000000    96.46000000   103.12000000
   O     58.66000000    97.61000000   102.73000000
   O     57.29000000    96.19000000   103.72000000
   H     61.77000000    93.94000000   103.51000000
   H     61.02000000    96.73000000   103.18000000
   H     58.96000000    94.45000000   103.42000000
   H     59.63000000    95.34000000   101.94000000
   N     61.75000000    96.36000000   105.76000000
   C     62.01000000    96.82000000   107.11000000
   C     61.72000000    95.80000000   108.21000000
   O     61.12000000    96.23000000   109.19000000
   C     63.40000000    97.42000000   107.26000000
   C     63.80000000    97.63000000   108.70000000
   C     64.74000000    96.82000000   109.35000000
   C     63.27000000    98.71000000   109.41000000
   C     65.04000000    97.12000000   110.68000000
   C     63.59000000    99.03000000   110.74000000
   C     64.47000000    98.17000000   111.41000000
   H     62.53000000    96.35000000   105.11000000
   H     61.38000000    97.70000000   107.26000000
   H     63.52000000    98.38000000   106.76000000
   H     64.15000000    96.69000000   106.94000000
   H     65.37000000    96.11000000   108.85000000
   H     62.59000000    99.38000000   108.89000000
   H     65.78000000    96.52000000   111.19000000
   H     63.16000000    99.89000000   111.24000000
   H     64.73000000    98.44000000   112.42000000
   N     62.02000000    94.51000000   108.09000000
   C     62.73000000    93.84000000   107.02000000
   C     61.81000000    93.02000000   106.12000000
   O     62.27000000    92.55000000   105.08000000
   C     63.80000000    92.98000000   107.67000000
   C     63.14000000    92.60000000   108.99000000
   C     62.22000000    93.77000000   109.32000000
   H     63.29000000    94.49000000   106.35000000
   H     64.07000000    92.11000000   107.07000000
   H     64.71000000    93.54000000   107.89000000
   H     62.45000000    91.76000000   108.89000000
   H     63.98000000    92.41000000   109.66000000
   H     61.32000000    93.47000000   109.86000000
   H     62.84000000    94.46000000   109.90000000
   N     60.57000000    92.75000000   106.55000000
   C     59.95000000    91.49000000   106.20000000
   C     59.35000000    91.50000000   104.80000000
   O     58.49000000    92.32000000   104.49000000
   C     58.92000000    91.12000000   107.26000000
   C     58.02000000    90.01000000   106.73000000
   C     57.15000000    89.43000000   107.84000000
   O     56.09000000    89.96000000   108.24000000
   O     57.57000000    88.43000000   108.46000000
   H     60.22000000    93.22000000   107.37000000
   H     60.67000000    90.67000000   106.27000000
   H     58.28000000    91.97000000   107.50000000
   H     59.43000000    90.85000000   108.19000000
   H     58.65000000    89.20000000   106.36000000
   H     57.44000000    90.26000000   105.85000000
   N     59.82000000    90.63000000   103.90000000
   C     59.62000000    90.72000000   102.47000000
   H     58.91600000    91.52300000   102.25200000
   H     60.57200000    90.92900000   101.98200000
   H     59.22000000    89.77700000   102.09800000
   H     60.51000000    90.01000000   104.31000000
  Ca     59.97000000    99.60000000   102.11800000
   O     57.54000000   100.28800000   101.15800000
   H     57.01000000    99.63800000   100.68800000
   H     57.27000000   101.12800000   100.77800000
   O     59.74000000   100.41800000    99.38000000
   H     58.86000000   100.64800000    99.08000000
   H     60.21000000   100.17800000    98.58000000
   O     61.29000000    99.23000000   104.42800000
   H     62.23000000    99.02000000   104.40800000
   H     61.12000000    99.48000000   105.33800000
   O     62.48000000    98.83000000   101.32800000
   H     63.21000000    98.98000000   100.71800000
   H     62.63000000    97.94000000   101.65800000
   O     59.82000000    97.73000000   100.00800000
   H     59.81000000    96.79000000    99.86800000
   H     59.53000000    98.10000000    99.17800000
   O     58.58000000   100.85800000   104.17800000
   H     57.77000000   101.18800000   104.57800000
   H     59.23000000   100.94800000   104.87800000

Ca 1.00



