%chk=loop1.apoCaM-CA-Ng.Init31.run28.water4.chk
%nprocshared=20
%mem=10GB
%nosave
#b3lyp/svp scf=(tight,noincore,xqc) Test 
#IOP(5/87=12) Density=Current Pop=(MK,readradii) iop(6/33=2) iop(6/42=6)

loop1.apoCaM-CA-Ng.Init31.run28.water4 

   0  1 
   C     74.82000000    70.30000000    89.89000000
   C     73.99000000    70.92000000    88.78000000
   O     73.88000000    72.14000000    88.68000000
   H     75.72100000    70.89400000    90.04400000
   H     74.23800000    70.27900000    90.81100000
   H     75.09800000    69.28300000    89.61200000
   N     73.44000000    70.11000000    87.87000000
   C     72.81000000    70.59000000    86.65000000
   C     71.64000000    69.68000000    86.32000000
   O     71.63000000    68.52000000    86.73000000
   C     73.92000000    70.67000000    85.60000000
   C     73.45000000    71.30000000    84.30000000
   O     72.40000000    71.97000000    84.17000000
   O     74.12000000    71.09000000    83.26000000
   H     73.41000000    69.12000000    88.06000000
   H     72.46000000    71.60000000    86.84000000
   H     74.19000000    69.66000000    85.32000000
   H     74.68000000    71.35000000    85.98000000
   N     70.68000000    70.21000000    85.55000000
   C     69.33000000    69.77000000    85.28000000
   C     69.24000000    68.39000000    84.65000000
   O     68.50000000    67.58000000    85.22000000
   C     68.48000000    70.86000000    84.64000000
   C     67.01000000    70.49000000    84.51000000
   C     66.22000000    71.63000000    83.87000000
   C     64.77000000    71.18000000    83.94000000
   N     63.91000000    72.30000000    83.53000000
   H     70.86000000    71.19000000    85.36000000
   H     68.93000000    69.67000000    86.29000000
   H     68.96000000    71.15000000    83.71000000
   H     68.47000000    71.67000000    85.38000000
   H     66.61000000    70.29000000    85.50000000
   H     66.99000000    69.58000000    83.90000000
   H     66.50000000    71.78000000    82.82000000
   H     66.41000000    72.58000000    84.37000000
   H     64.59000000    70.76000000    84.93000000
   H     64.45000000    70.43000000    83.22000000
   H     64.15000000    72.73000000    82.65000000
   H     62.96000000    71.98000000    83.40000000
   H     63.89000000    73.09000000    84.17000000
   N     69.78000000    68.07000000    83.47000000
   C     70.68000000    68.77000000    82.57000000
   C     71.77000000    67.86000000    82.02000000
   O     71.52000000    66.77000000    81.50000000
   C     69.77000000    69.41000000    81.53000000
   C     70.49000000    70.57000000    80.87000000
   O     69.90000000    71.26000000    80.02000000
   O     71.65000000    70.93000000    81.16000000
   H     69.68000000    67.10000000    83.22000000
   H     71.21000000    69.59000000    83.06000000
   H     68.84000000    69.81000000    81.94000000
   H     69.55000000    68.72000000    80.72000000
   N     73.00000000    68.39000000    82.00000000
   C     74.19000000    67.77000000    81.45000000
   C     75.44000000    68.64000000    81.50000000
   O     76.07000000    68.80000000    82.54000000
   H     73.16000000    69.34000000    82.31000000
   H     74.04000000    67.41000000    80.43000000
   H     74.36000000    66.85000000    82.00000000
   N     75.81000000    69.18000000    80.34000000
   C     77.01000000    69.96000000    80.11000000
   C     78.19000000    69.20000000    79.52000000
   O     78.00000000    68.43000000    78.58000000
   C     76.62000000    71.16000000    79.24000000
   C     75.44000000    71.83000000    79.94000000
   O     75.70000000    72.59000000    80.89000000
   O     74.26000000    71.77000000    79.53000000
   H     75.04000000    69.26000000    79.68000000
   H     77.34000000    70.37000000    81.06000000
   H     76.41000000    70.88000000    78.21000000
   H     77.46000000    71.83000000    79.42000000
   N     79.42000000    69.37000000    80.01000000
   C     79.99000000    70.31000000    80.94000000
   C     80.34000000    71.66000000    80.32000000
   O     80.91000000    72.48000000    81.04000000
   H     80.06000000    68.72000000    79.58000000
   H     80.90000000    69.85000000    81.33000000
   H     79.38000000    70.47000000    81.83000000
   N     80.17000000    71.88000000    79.02000000
   C     80.83000000    72.98000000    78.34000000
   C     82.34000000    72.92000000    78.49000000
   O     82.94000000    73.88000000    78.97000000
   C     80.17000000    74.34000000    78.54000000
   C     78.65000000    74.26000000    78.66000000
   O     80.43000000    75.18000000    77.44000000
   H     79.78000000    71.08000000    78.53000000
   H     80.67000000    72.88000000    77.27000000
   H     80.61000000    74.84000000    79.40000000
   H     80.92000000    75.96000000    77.71000000
   H     78.29000000    75.29000000    78.59000000
   H     78.20000000    73.70000000    77.84000000
   H     78.31000000    73.87000000    79.62000000
   N     82.91000000    71.77000000    78.13000000
   C     84.30000000    71.38000000    78.00000000
   C     85.14000000    72.24000000    77.06000000
   O     85.71000000    71.76000000    76.08000000
   C     84.95000000    71.29000000    79.38000000
   C     84.09000000    70.74000000    80.51000000
   C     86.14000000    70.33000000    79.33000000
   C     83.36000000    69.40000000    80.46000000
   H     82.27000000    71.05000000    77.82000000
   H     84.37000000    70.39000000    77.55000000
   H     85.29000000    72.28000000    79.68000000
   H     83.33000000    71.51000000    80.67000000
   H     84.64000000    70.63000000    81.44000000
   H     86.94000000    70.75000000    78.72000000
   H     86.67000000    70.24000000    80.28000000
   H     85.91000000    69.34000000    78.94000000
   H     84.14000000    68.69000000    80.18000000
   H     82.86000000    69.19000000    81.41000000
   H     82.58000000    69.44000000    79.70000000
   N     85.21000000    73.56000000    77.25000000
   C     85.84000000    74.53000000    76.37000000
   C     86.61000000    75.66000000    77.04000000
   O     86.19000000    76.16000000    78.08000000
   C     84.83000000    74.93000000    75.30000000
   C     83.58000000    75.63000000    75.82000000
   O     84.37000000    73.84000000    74.53000000
   H     84.57000000    73.93000000    77.93000000
   H     86.65000000    73.94000000    75.94000000
   H     85.43000000    75.56000000    74.64000000
   H     85.17000000    73.39000000    74.27000000
   H     82.95000000    75.76000000    74.94000000
   H     83.06000000    75.05000000    76.58000000
   H     83.87000000    76.61000000    76.20000000
   N     87.69000000    76.12000000    76.40000000
   C     88.37000000    77.34000000    76.81000000
   C     87.44000000    78.54000000    76.95000000
   O     86.59000000    78.73000000    76.09000000
   C     89.54000000    77.65000000    75.88000000
   C     90.59000000    78.68000000    76.29000000
   O     90.29000000    76.48000000    75.63000000
   H     87.91000000    75.74000000    75.49000000
   H     88.78000000    77.14000000    77.80000000
   H     89.14000000    77.91000000    74.90000000
   H     90.65000000    76.57000000    74.74000000
   H     91.58000000    78.28000000    76.05000000
   H     90.36000000    79.64000000    75.84000000
   H     90.50000000    78.89000000    77.35000000
   N     87.61000000    79.29000000    78.04000000
   C     86.73000000    80.34000000    78.52000000
   C     85.25000000    80.10000000    78.26000000
   O     84.64000000    80.58000000    77.31000000
   C     87.21000000    81.74000000    78.15000000
   C     87.05000000    82.81000000    79.22000000
   C     87.89000000    84.04000000    78.88000000
   C     87.48000000    85.21000000    79.77000000
   N     87.97000000    86.48000000    79.21000000
   H     88.35000000    79.00000000    78.66000000
   H     86.84000000    80.25000000    79.60000000
   H     86.76000000    82.08000000    77.22000000
   H     88.28000000    81.58000000    77.97000000
   H     87.25000000    82.35000000    80.19000000
   H     86.01000000    83.14000000    79.31000000
   H     87.67000000    84.29000000    77.84000000
   H     88.94000000    83.79000000    78.80000000
   H     87.94000000    84.97000000    80.72000000
   H     86.41000000    85.34000000    79.94000000
   H     88.00000000    87.23000000    79.88000000
   H     88.91000000    86.45000000    78.82000000
   H     87.36000000    86.73000000    78.45000000
   N     84.65000000    79.23000000    79.08000000
   C     83.22000000    78.99000000    79.19000000
   C     82.80000000    77.54000000    79.37000000
   O     81.77000000    77.13000000    78.84000000
   C     82.64000000    79.83000000    80.32000000
   C     82.56000000    81.29000000    79.88000000
   C     81.86000000    82.22000000    80.86000000
   O     81.15000000    83.16000000    80.44000000
   O     82.06000000    82.03000000    82.07000000
   H     85.27000000    78.65000000    79.64000000
   H     82.80000000    79.29000000    78.23000000
   H     83.33000000    79.72000000    81.16000000
   H     81.60000000    79.55000000    80.49000000
   H     82.04000000    81.36000000    78.93000000
   H     83.53000000    81.75000000    79.68000000
   N     83.44000000    76.65000000    80.13000000
   C     84.77000000    76.68000000    80.69000000
   H     85.41900000    77.27900000    80.05100000
   H     84.73500000    77.12000000    81.68700000
   H     85.16100000    75.66500000    80.75400000
   H     83.00000000    75.74000000    80.25000000
  Ca     73.24000000    72.94000000    81.67000000
   O     71.83000000    74.85000000    82.84000000
   H     72.19000000    75.52000000    83.42000000
   H     71.36000000    75.35000000    82.17000000
   O     74.18000000    74.93000000    80.18000000
   H     73.99000000    75.87000000    80.18000000
   H     75.12000000    74.88000000    80.00000000
   O     71.29000000    73.64000000    79.94000000
   H     70.63000000    72.95000000    79.96000000
   H     71.23000000    74.00000000    79.05000000
   O     74.75000000    74.05000000    83.84000000
   H     75.68000000    73.91000000    84.03000000
   H     74.37000000    74.29000000    84.69000000

Ca 1.00



