%chk=loop1.holoCaM-CaMKII.run65.water2.chk
%nprocshared=20
%mem=10GB
%nosave
#b3lyp/svp scf=(tight,noincore,xqc) Test 
#IOP(5/87=12) Density=Current Pop=(MK,readradii) iop(6/33=2) iop(6/42=6)

loop1.holoCaM-CaMKII.run65.water2 

   0  1 
   C     24.94000000    58.49000000   106.49100000
   C     24.75000000    59.85000000   107.15100000
   O     23.62000000    60.33000000   107.08100000
   H     25.94100000    58.11800000   106.70800000
   H     24.20100000    57.79000000   106.88000000
   H     24.81600000    58.58800000   105.41300000
   N     25.76000000    60.47000000   107.76100000
   C     25.78000000    61.76000000   108.42100000
   C     25.74000000    62.85000000   107.35100000
   O     26.80000000    63.42000000   107.07100000
   C     26.93000000    61.79000000   109.41100000
   C     27.24000000    63.11000000   110.09100000
   O     28.38000000    63.17000000   110.60100000
   O     26.35000000    63.99000000   110.16100000
   H     26.64000000    59.98000000   107.65100000
   H     24.85000000    61.84000000   108.98100000
   H     27.83000000    61.39000000   108.93100000
   H     26.62000000    61.14000000   110.23100000
   N     24.63000000    63.10000000   106.67100000
   C     24.66000000    63.94000000   105.49100000
   C     24.98000000    65.42000000   105.72100000
   O     25.06000000    66.11000000   104.70100000
   C     23.32000000    63.75000000   104.78100000
   C     23.34000000    62.52000000   103.88100000
   C     21.94000000    62.34000000   103.31100000
   C     21.96000000    61.13000000   102.38100000
   N     22.19000000    59.88000000   103.11100000
   H     23.81000000    62.58000000   106.96100000
   H     25.44000000    63.66000000   104.78100000
   H     23.05000000    64.50000000   104.04100000
   H     22.58000000    63.57000000   105.55100000
   H     23.56000000    61.55000000   104.33100000
   H     24.08000000    62.71000000   103.10100000
   H     21.67000000    63.24000000   102.76100000
   H     21.18000000    62.24000000   104.08100000
   H     22.65000000    61.24000000   101.54100000
   H     20.95000000    61.11000000   101.96100000
   H     23.19000000    59.73000000   103.18100000
   H     21.81000000    59.86000000   104.05100000
   H     21.80000000    59.08000000   102.62100000
   N     25.14000000    65.90000000   106.95100000
   C     25.58000000    67.25000000   107.27100000
   C     26.99000000    67.35000000   107.84100000
   O     27.54000000    68.45000000   107.86100000
   C     24.62000000    67.99000000   108.18100000
   C     24.23000000    67.36000000   109.51100000
   O     24.56000000    66.21000000   109.88100000
   O     23.35000000    67.97000000   110.14100000
   H     24.96000000    65.30000000   107.74100000
   H     25.53000000    67.86000000   106.37100000
   H     23.70000000    68.09000000   107.60100000
   H     25.04000000    68.96000000   108.43100000
   N     27.67000000    66.23000000   108.11100000
   C     29.06000000    66.27000000   108.53100000
   C     29.31000000    66.54000000   110.01100000
   O     30.42000000    66.84000000   110.46100000
   H     27.18000000    65.35000000   108.16100000
   H     29.55000000    67.09000000   108.00100000
   H     29.56000000    65.35000000   108.25100000
   N     28.26000000    66.54000000   110.83100000
   C     28.40000000    66.99000000   112.20100000
   C     29.12000000    65.98000000   113.08100000
   O     29.47000000    66.27000000   114.22100000
   C     27.10000000    67.42000000   112.88100000
   C     26.10000000    66.32000000   113.16100000
   O     26.45000000    65.12000000   113.16100000
   O     24.90000000    66.66000000   113.24100000
   H     27.38000000    66.18000000   110.50100000
   H     29.08000000    67.84000000   112.17100000
   H     26.61000000    68.16000000   112.25100000
   H     27.37000000    67.91000000   113.81100000
   N     29.33000000    64.76000000   112.58100000
   C     30.18000000    63.79000000   113.23100000
   C     29.38000000    62.80000000   114.07100000
   O     29.90000000    62.06000000   114.89100000
   H     28.89000000    64.50000000   111.70100000
   H     30.91000000    64.25000000   113.89100000
   H     30.78000000    63.18000000   112.55100000
   N     28.05000000    62.89000000   113.98100000
   C     27.11000000    61.94000000   114.55100000
   C     25.99000000    61.51000000   113.62100000
   O     25.39000000    62.38000000   113.00100000
   C     26.50000000    62.62000000   115.77100000
   C     27.47000000    62.79000000   116.94100000
   O     25.86000000    63.85000000   115.53100000
   H     27.74000000    63.57000000   113.30100000
   H     27.67000000    61.06000000   114.86100000
   H     25.65000000    62.04000000   116.11100000
   H     25.94000000    64.01000000   114.59100000
   H     28.45000000    63.06000000   116.54100000
   H     27.03000000    63.57000000   117.57100000
   H     27.56000000    61.86000000   117.50100000
   N     25.61000000    60.23000000   113.61100000
   C     24.48000000    59.68000000   112.89100000
   C     23.27000000    59.45000000   113.79100000
   O     23.37000000    58.78000000   114.81100000
   C     24.79000000    58.36000000   112.18100000
   C     26.17000000    58.18000000   111.55100000
   C     23.70000000    58.01000000   111.17100000
   C     26.55000000    56.81000000   111.00100000
   H     26.13000000    59.55000000   114.14100000
   H     24.15000000    60.34000000   112.10100000
   H     24.59000000    57.52000000   112.84100000
   H     26.88000000    58.34000000   112.36100000
   H     26.25000000    58.88000000   110.72100000
   H     22.74000000    58.11000000   111.67100000
   H     23.72000000    58.73000000   110.35100000
   H     23.73000000    57.02000000   110.71100000
   H     25.90000000    56.41000000   110.22100000
   H     27.53000000    56.86000000   110.53100000
   H     26.49000000    56.20000000   111.90100000
   N     22.14000000    60.08000000   113.48100000
   C     20.88000000    60.05000000   114.19100000
   C     20.05000000    58.88000000   113.67100000
   O     20.24000000    58.32000000   112.60100000
   C     20.08000000    61.34000000   114.04100000
   C     20.68000000    62.64000000   114.58100000
   O     19.69000000    61.45000000   112.69100000
   H     22.25000000    60.62000000   112.63100000
   H     21.02000000    59.85000000   115.26100000
   H     19.14000000    61.20000000   114.58100000
   H     20.30000000    62.08000000   112.29100000
   H     20.54000000    63.50000000   113.92100000
   H     20.12000000    62.94000000   115.46100000
   H     21.74000000    62.57000000   114.84100000
   N     18.92000000    58.60000000   114.31100000
   C     17.95000000    57.64000000   113.82100000
   C     17.41000000    58.07000000   112.46100000
   O     17.12000000    57.20000000   111.64100000
   C     16.79000000    57.50000000   114.81100000
   C     17.25000000    56.70000000   116.03100000
   O     16.37000000    58.77000000   115.25100000
   H     18.72000000    59.09000000   115.17100000
   H     18.47000000    56.68000000   113.72100000
   H     16.06000000    56.82000000   114.36100000
   H     15.67000000    58.60000000   115.88100000
   H     16.43000000    56.59000000   116.75100000
   H     17.56000000    55.72000000   115.69100000
   H     18.06000000    57.27000000   116.48100000
   N     17.27000000    59.37000000   112.17100000
   C     16.73000000    59.82000000   110.90100000
   C     17.73000000    59.55000000   109.79100000
   O     17.30000000    59.13000000   108.72100000
   C     16.56000000    61.33000000   111.00100000
   C     15.67000000    61.91000000   109.90100000
   C     15.31000000    63.39000000   110.02100000
   C     14.68000000    63.96000000   108.76100000
   N     13.29000000    63.51000000   108.54100000
   H     17.68000000    59.99000000   112.85100000
   H     15.77000000    59.32000000   110.76100000
   H     17.51000000    61.85000000   110.98100000
   H     16.09000000    61.63000000   111.94100000
   H     14.77000000    61.31000000   109.84100000
   H     16.24000000    61.79000000   108.98100000
   H     16.22000000    63.96000000   110.21100000
   H     14.66000000    63.55000000   110.88100000
   H     15.23000000    63.71000000   107.85100000
   H     14.59000000    65.04000000   108.89100000
   H     12.67000000    64.06000000   109.12100000
   H     13.00000000    63.68000000   107.59100000
   H     13.17000000    62.52000000   108.66100000
   N     19.04000000    59.70000000   110.00100000
   C     20.05000000    59.55000000   108.98100000
   C     20.29000000    58.07000000   108.73100000
   O     20.50000000    57.70000000   107.57100000
   C     21.30000000    60.26000000   109.48100000
   C     21.15000000    61.76000000   109.32100000
   C     22.26000000    62.50000000   110.05100000
   O     22.98000000    63.29000000   109.40100000
   O     22.50000000    62.33000000   111.26100000
   H     19.27000000    60.07000000   110.92100000
   H     19.72000000    60.09000000   108.09100000
   H     22.09000000    59.86000000   108.83100000
   H     21.40000000    60.03000000   110.54100000
   H     20.17000000    62.13000000   109.62100000
   H     21.21000000    62.00000000   108.25100000
   N     20.29000000    57.22000000   109.75100000
   C     20.53000000    55.80000000   109.62100000
   H     21.48100000    55.54900000   110.09000000
   H     19.72700000    55.24900000   110.11100000
   H     20.56400000    55.53200000   108.56500000
   H     20.07000000    57.62000000   110.65100000
  Ca     24.25000000    64.29000000   111.51100000
   O     23.42000000    64.36000000   113.94100000
   H     24.15000000    64.48000000   114.55100000
   H     22.76000000    64.99000000   114.24100000
   O     22.18000000    65.83000000   111.26100000
   H     22.52000000    66.51000000   110.68100000
   H     21.24000000    65.79000000   111.06100000

Ca 1.00



