%chk=loop2.apoCaM-CA-Ng.Init31.run29.water4.chk
%nprocshared=20
%mem=10GB
%nosave
#b3lyp/svp scf=(tight,noincore,xqc) Test 
#IOP(5/87=12) Density=Current Pop=(MK,readradii) iop(6/33=2) iop(6/42=6)

loop2.apoCaM-CA-Ng.Init31.run29.water4 

   -2  1 
   C     93.06000000    61.55000000    66.53000000
   C     91.57000000    61.87000000    66.55000000
   O     90.83000000    61.06000000    67.11000000
   H     93.60300000    62.31700000    67.08100000
   H     93.23000000    60.58000000    66.99600000
   H     93.41300000    61.52500000    65.49900000
   N     91.03000000    62.93000000    65.94000000
   C     91.59000000    64.02000000    65.17000000
   C     90.99000000    64.27000000    63.79000000
   O     89.78000000    64.15000000    63.62000000
   C     91.51000000    65.26000000    66.06000000
   C     90.14000000    65.85000000    66.35000000
   O     89.97000000    67.07000000    66.53000000
   O     89.17000000    65.06000000    66.42000000
   H     90.04000000    63.00000000    66.12000000
   H     92.59000000    63.64000000    64.98000000
   H     92.09000000    66.04000000    65.57000000
   H     91.99000000    64.99000000    67.00000000
   N     91.79000000    64.78000000    62.85000000
   C     91.37000000    65.32000000    61.57000000
   C     90.49000000    66.56000000    61.66000000
   O     91.02000000    67.67000000    61.63000000
   C     90.68000000    64.26000000    60.73000000
   H     92.77000000    64.81000000    63.09000000
   H     92.27000000    65.62000000    61.04000000
   H     90.38000000    64.66000000    59.76000000
   H     91.50000000    63.60000000    60.45000000
   H     89.80000000    63.75000000    61.13000000
   N     89.16000000    66.40000000    61.69000000
   C     88.20000000    67.45000000    61.96000000
   C     87.96000000    67.83000000    63.41000000
   O     87.84000000    66.93000000    64.25000000
   C     86.81000000    67.14000000    61.41000000
   C     86.17000000    65.82000000    61.83000000
   O     86.92000000    64.90000000    62.22000000
   O     84.96000000    65.65000000    61.54000000
   H     88.85000000    65.44000000    61.72000000
   H     88.49000000    68.40000000    61.52000000
   H     86.72000000    67.12000000    60.32000000
   H     86.12000000    67.95000000    61.67000000
   N     88.01000000    69.12000000    63.72000000
   C     87.92000000    69.63000000    65.08000000
   C     86.52000000    69.73000000    65.66000000
   O     85.88000000    70.74000000    65.35000000
   H     88.18000000    69.85000000    63.03000000
   H     88.36000000    70.62000000    65.20000000
   H     88.46000000    68.95000000    65.73000000
   N     86.07000000    68.77000000    66.47000000
   C     84.67000000    68.58000000    66.78000000
   C     84.36000000    68.94000000    68.22000000
   O     83.20000000    69.17000000    68.57000000
   C     84.27000000    67.14000000    66.45000000
   C     84.51000000    66.72000000    65.01000000
   N     83.83000000    67.26000000    63.99000000
   O     85.40000000    65.89000000    64.82000000
   H     86.76000000    68.09000000    66.76000000
   H     84.13000000    69.30000000    66.17000000
   H     83.27000000    66.86000000    66.79000000
   H     84.94000000    66.52000000    67.06000000
   H     83.19000000    68.00000000    64.24000000
   H     83.88000000    66.85000000    63.07000000
   N     85.37000000    68.90000000    69.10000000
   C     85.29000000    68.88000000    70.54000000
   C     84.63000000    67.64000000    71.12000000
   O     84.39000000    66.68000000    70.39000000
   H     86.31000000    68.81000000    68.73000000
   H     84.73000000    69.79000000    70.79000000
   H     86.28000000    68.84000000    70.99000000
   N     84.34000000    67.74000000    72.42000000
   C     84.59000000    68.80000000    73.38000000
   C     85.48000000    68.27000000    74.49000000
   O     86.27000000    68.97000000    75.11000000
   C     83.28000000    69.31000000    73.97000000
   C     83.57000000    70.66000000    74.61000000
   O     82.29000000    69.55000000    73.00000000
   H     83.87000000    66.91000000    72.76000000
   H     85.17000000    69.66000000    73.03000000
   H     82.92000000    68.59000000    74.70000000
   H     81.55000000    70.03000000    73.38000000
   H     84.32000000    71.26000000    74.10000000
   H     82.58000000    71.11000000    74.70000000
   H     83.89000000    70.37000000    75.62000000
   N     85.30000000    66.97000000    74.74000000
   C     86.06000000    66.12000000    75.65000000
   C     85.62000000    66.35000000    77.09000000
   O     85.96000000    67.32000000    77.76000000
   C     87.58000000    66.12000000    75.50000000
   C     88.09000000    66.25000000    74.07000000
   C     88.28000000    64.96000000    76.19000000
   C     87.56000000    65.08000000    73.24000000
   H     84.59000000    66.47000000    74.23000000
   H     85.79000000    65.12000000    75.30000000
   H     87.93000000    67.05000000    75.96000000
   H     89.16000000    66.31000000    73.89000000
   H     87.74000000    67.16000000    73.58000000
   H     88.12000000    65.05000000    77.26000000
   H     87.74000000    64.04000000    75.94000000
   H     89.35000000    64.91000000    75.96000000
   H     87.90000000    65.11000000    72.21000000
   H     88.01000000    64.16000000    73.63000000
   H     86.48000000    64.99000000    73.28000000
   N     84.77000000    65.46000000    77.60000000
   C     84.11000000    64.35000000    76.96000000
   C     84.95000000    63.08000000    76.92000000
   O     85.26000000    62.55000000    75.85000000
   C     82.73000000    63.98000000    77.50000000
   C     82.60000000    64.00000000    79.02000000
   O     83.59000000    64.19000000    79.75000000
   O     81.49000000    63.80000000    79.57000000
   H     84.50000000    65.62000000    78.56000000
   H     83.99000000    64.61000000    75.91000000
   H     82.35000000    63.04000000    77.11000000
   H     82.04000000    64.74000000    77.14000000
   N     85.48000000    62.65000000    78.07000000
   C     86.31000000    61.48000000    78.22000000
   C     85.47000000    60.32000000    78.72000000
   O     84.30000000    60.56000000    79.01000000
   C     87.39000000    61.95000000    79.19000000
   C     86.90000000    62.08000000    80.61000000
   C     86.36000000    63.25000000    81.16000000
   C     87.17000000    60.99000000    81.45000000
   C     86.12000000    63.38000000    82.54000000
   C     86.97000000    61.13000000    82.82000000
   C     86.38000000    62.28000000    83.36000000
   H     85.10000000    63.13000000    78.87000000
   H     86.76000000    61.14000000    77.29000000
   H     87.79000000    62.91000000    78.86000000
   H     88.05000000    61.09000000    79.15000000
   H     86.16000000    64.07000000    80.49000000
   H     87.77000000    60.16000000    81.09000000
   H     85.73000000    64.24000000    83.05000000
   H     87.25000000    60.28000000    83.43000000
   H     86.24000000    62.30000000    84.43000000
   N     85.89000000    59.05000000    78.68000000
   C     87.18000000    58.47000000    78.41000000
   C     87.53000000    58.34000000    76.93000000
   O     86.68000000    58.49000000    76.06000000
   C     87.13000000    57.07000000    79.02000000
   C     85.68000000    56.70000000    78.71000000
   C     84.94000000    58.00000000    79.01000000
   H     87.92000000    59.13000000    78.86000000
   H     87.83000000    56.33000000    78.65000000
   H     87.25000000    57.06000000    80.10000000
   H     85.77000000    56.39000000    77.67000000
   H     85.25000000    55.90000000    79.32000000
   H     83.98000000    58.14000000    78.52000000
   H     84.72000000    58.09000000    80.07000000
   N     88.80000000    58.09000000    76.60000000
   C     89.30000000    58.01000000    75.24000000
   C     90.76000000    58.35000000    74.95000000
   O     91.35000000    57.82000000    74.01000000
   C     88.91000000    56.64000000    74.69000000
   C     89.23000000    55.43000000    75.56000000
   C     90.66000000    55.39000000    76.08000000
   O     91.39000000    54.45000000    75.67000000
   O     91.05000000    56.19000000    76.95000000
   H     89.50000000    57.87000000    77.30000000
   H     88.75000000    58.69000000    74.60000000
   H     89.35000000    56.49000000    73.71000000
   H     87.82000000    56.63000000    74.58000000
   H     88.93000000    54.61000000    74.91000000
   H     88.57000000    55.40000000    76.42000000
   N     91.37000000    59.34000000    75.60000000
   C     90.98000000    60.31000000    76.61000000
   H     89.96300000    60.10000000    76.94100000
   H     91.65900000    60.24300000    77.46000000
   H     91.02400000    61.31400000    76.18700000
   H     92.32000000    59.47000000    75.29000000
  Ca     87.38000000    64.37000000    64.75000000
   O     88.24000000    62.29000000    66.33000000
   H     87.94000000    62.22000000    67.23000000
   H     88.73000000    61.49000000    66.17000000
   O     86.08000000    64.20000000    67.42000000
   H     85.25000000    63.72000000    67.39000000
   H     86.38000000    64.09000000    68.32000000
   O     85.05000000    62.93000000    65.02000000
   H     85.12000000    62.21000000    65.65000000
   H     84.74000000    62.51000000    64.21000000
   O     87.77000000    62.03000000    63.54000000
   H     87.55000000    61.11000000    63.69000000
   H     88.49000000    62.00000000    62.91000000

Ca 1.00



