%chk=loop3.holoCaM-CaMKII.run66.water2.chk
%nprocshared=20
%mem=10GB
%nosave
#b3lyp/svp scf=(tight,noincore,xqc) Test 
#IOP(5/87=12) Density=Current Pop=(MK,readradii) iop(6/33=2) iop(6/42=6)

loop3.holoCaM-CaMKII.run66.water2 

   0  1 
   C     29.77000000    48.53000000    89.66900000
   C     30.19000000    47.86000000    88.36900000
   O     31.02000000    48.45000000    87.67900000
   H     28.74300000    48.25200000    89.90500000
   H     30.42800000    48.20500000    90.47500000
   H     29.83700000    49.61200000    89.55900000
   N     29.51000000    46.76000000    88.01900000
   C     29.55000000    46.07000000    86.73900000
   C     28.79000000    46.94000000    85.74900000
   O     27.60000000    47.24000000    85.89900000
   C     28.94000000    44.69000000    86.87900000
   C     29.15000000    43.79000000    85.65900000
   O     29.66000000    44.27000000    84.62900000
   O     28.78000000    42.60000000    85.77900000
   H     28.88000000    46.41000000    88.71900000
   H     30.62000000    46.08000000    86.52900000
   H     27.92000000    44.71000000    87.27900000
   H     29.50000000    44.29000000    87.71900000
   N     29.48000000    47.45000000    84.72900000
   C     29.00000000    48.41000000    83.75900000
   C     28.02000000    47.75000000    82.79900000
   O     27.25000000    48.47000000    82.14900000
   C     30.18000000    49.01000000    82.99900000
   C     29.95000000    50.27000000    82.17900000
   C     31.26000000    50.59000000    81.45900000
   C     31.08000000    51.85000000    80.61900000
   N     32.33000000    52.20000000    79.92900000
   H     30.39000000    47.04000000    84.57900000
   H     28.46000000    49.22000000    84.24900000
   H     30.61000000    48.20000000    82.40900000
   H     30.90000000    49.31000000    83.75900000
   H     29.63000000    51.09000000    82.82900000
   H     29.18000000    49.96000000    81.45900000
   H     31.47000000    49.77000000    80.76900000
   H     32.09000000    50.66000000    82.14900000
   H     30.72000000    52.72000000    81.16900000
   H     30.34000000    51.66000000    79.83900000
   H     32.65000000    51.43000000    79.34900000
   H     32.27000000    52.98000000    79.28900000
   H     33.04000000    52.39000000    80.61900000
   N     28.04000000    46.43000000    82.60900000
   C     27.40000000    45.70000000    81.53900000
   C     26.57000000    44.50000000    81.98900000
   O     25.77000000    43.97000000    81.21900000
   C     28.37000000    45.13000000    80.50900000
   C     29.63000000    44.50000000    81.08900000
   O     29.58000000    43.50000000    81.83900000
   O     30.77000000    44.94000000    80.80900000
   H     28.74000000    45.98000000    83.17900000
   H     26.76000000    46.39000000    80.99900000
   H     28.76000000    45.95000000    79.90900000
   H     27.86000000    44.47000000    79.80900000
   N     26.90000000    43.94000000    83.14900000
   C     26.13000000    42.94000000    83.85900000
   C     26.52000000    41.49000000    83.58900000
   O     25.65000000    40.62000000    83.56900000
   H     27.84000000    44.11000000    83.46900000
   H     25.11000000    43.01000000    83.46900000
   H     26.18000000    43.17000000    84.91900000
   N     27.80000000    41.27000000    83.30900000
   C     28.36000000    39.96000000    83.00900000
   C     29.02000000    39.23000000    84.16900000
   O     29.60000000    38.16000000    83.98900000
   C     29.27000000    40.06000000    81.77900000
   C     30.67000000    40.61000000    81.97900000
   N     31.54000000    40.21000000    81.03900000
   O     31.04000000    41.26000000    82.95900000
   H     28.45000000    42.03000000    83.19900000
   H     27.66000000    39.20000000    82.65900000
   H     28.80000000    40.63000000    80.97900000
   H     29.33000000    39.06000000    81.35900000
   H     31.27000000    39.55000000    80.32900000
   H     32.51000000    40.50000000    81.11900000
   N     29.01000000    39.84000000    85.35900000
   C     29.55000000    39.27000000    86.56900000
   C     31.06000000    39.42000000    86.68900000
   O     31.60000000    38.74000000    87.55900000
   H     28.69000000    40.80000000    85.37900000
   H     29.29000000    38.22000000    86.64900000
   H     29.24000000    39.91000000    87.39900000
   N     31.65000000    40.39000000    85.97900000
   C     33.01000000    40.81000000    86.25900000
   C     33.14000000    42.32000000    86.17900000
   O     32.33000000    43.04000000    85.59900000
   C     33.94000000    40.08000000    85.29900000
   C     33.94000000    38.57000000    85.33900000
   C     34.71000000    37.96000000    86.32900000
   C     33.17000000    37.82000000    84.43900000
   C     34.75000000    36.56000000    86.44900000
   C     33.20000000    36.43000000    84.55900000
   C     33.96000000    35.81000000    85.56900000
   O     33.90000000    34.44000000    85.61900000
   H     31.01000000    40.96000000    85.44900000
   H     33.23000000    40.35000000    87.21900000
   H     34.94000000    40.52000000    85.40900000
   H     33.59000000    40.37000000    84.30900000
   H     35.40000000    38.45000000    86.99900000
   H     32.54000000    38.35000000    83.72900000
   H     35.37000000    36.13000000    87.21900000
   H     32.61000000    35.82000000    83.88900000
   H     34.26000000    34.05000000    86.41900000
   N     34.14000000    42.83000000    86.90900000
   C     34.39000000    44.25000000    87.03900000
   C     35.85000000    44.50000000    86.65900000
   O     36.71000000    43.96000000    87.34900000
   C     34.11000000    44.69000000    88.47900000
   C     32.67000000    44.44000000    88.90900000
   C     34.31000000    46.19000000    88.68900000
   C     32.56000000    44.22000000    90.40900000
   H     34.72000000    42.19000000    87.42900000
   H     33.78000000    44.83000000    86.35900000
   H     34.79000000    44.26000000    89.20900000
   H     32.30000000    43.59000000    88.33900000
   H     32.01000000    45.27000000    88.62900000
   H     33.76000000    46.82000000    87.99900000
   H     34.08000000    46.46000000    89.71900000
   H     35.37000000    46.41000000    88.57900000
   H     32.99000000    44.97000000    91.06900000
   H     31.49000000    44.18000000    90.64900000
   H     33.07000000    43.27000000    90.58900000
   N     36.12000000    45.38000000    85.68900000
   C     37.47000000    45.80000000    85.36900000
   C     37.81000000    47.13000000    86.03900000
   O     36.93000000    47.78000000    86.58900000
   C     37.67000000    45.88000000    83.85900000
   O     36.95000000    46.99000000    83.38900000
   H     35.39000000    45.80000000    85.13900000
   H     38.17000000    45.04000000    85.71900000
   H     37.23000000    44.96000000    83.49900000
   H     38.73000000    45.95000000    83.60900000
   H     37.15000000    47.03000000    82.44900000
   N     39.04000000    47.62000000    85.82900000
   C     39.53000000    48.92000000    86.22900000
   C     38.76000000    50.03000000    85.53900000
   O     38.53000000    51.07000000    86.15900000
   C     41.00000000    48.95000000    85.81900000
   H     39.77000000    47.04000000    85.44900000
   H     39.45000000    49.03000000    87.30900000
   H     41.57000000    48.21000000    86.38900000
   H     41.08000000    48.81000000    84.74900000
   H     41.47000000    49.91000000    85.98900000
   N     38.37000000    49.85000000    84.26900000
   C     37.63000000    50.87000000    83.55900000
   C     36.18000000    50.94000000    84.01900000
   O     35.49000000    51.96000000    83.96900000
   C     37.63000000    50.53000000    82.06900000
   H     38.59000000    49.03000000    83.72900000
   H     38.22000000    51.78000000    83.59900000
   H     37.16000000    49.57000000    81.84900000
   H     37.10000000    51.29000000    81.48900000
   H     38.65000000    50.64000000    81.71900000
   N     35.65000000    49.82000000    84.52900000
   C     34.33000000    49.80000000    85.10900000
   C     34.35000000    50.43000000    86.49900000
   O     33.51000000    51.27000000    86.81900000
   C     33.82000000    48.36000000    85.05900000
   C     33.62000000    47.91000000    83.61900000
   C     33.09000000    46.48000000    83.57900000
   O     33.96000000    45.59000000    83.53900000
   O     31.91000000    46.20000000    83.90900000
   H     36.23000000    48.99000000    84.45900000
   H     33.67000000    50.40000000    84.48900000
   H     32.83000000    48.35000000    85.50900000
   H     34.52000000    47.73000000    85.60900000
   H     34.57000000    48.08000000    83.10900000
   H     32.87000000    48.47000000    83.06900000
   N     35.40000000    50.11000000    87.25900000
   C     35.66000000    50.84000000    88.47900000
   H     36.45300000    51.56700000    88.30500000
   H     34.75400000    51.35900000    88.79200000
   H     35.97000000    50.14500000    89.26000000
   H     36.04000000    49.42000000    86.87900000
  Ca     31.79000000    43.75000000    83.20000000
   O     34.50000000    42.91000000    83.35000000
   H     35.24000000    42.48000000    82.92000000
   H     34.77000000    43.82000000    83.43000000
   O     33.34000000    43.17000000    80.72000000
   H     33.53000000    43.56000000    79.87000000
   H     33.74000000    42.30000000    80.67000000

Ca 1.00



