%chk=loop4.holoCaM.run77.water2.chk
%nprocshared=20
%mem=10GB
%nosave
#b3lyp/svp scf=(tight,noincore,xqc) Test 
#IOP(5/87=12) Density=Current Pop=(MK,readradii) iop(6/33=2) iop(6/42=6)

loop4.holoCaM.run77.water2 

   -3  1 
   C     71.43000000    68.75000000    22.96000000
   C     70.82000000    69.76000000    23.92000000
   O     69.83000000    70.37000000    23.52000000
   H     72.43000000    68.48300000    23.30100000
   H     70.80700000    67.85600000    22.92800000
   H     71.49100000    69.18700000    21.96300000
   N     71.24000000    69.92000000    25.18000000
   C     70.91000000    70.99000000    26.09000000
   C     71.07000000    72.32000000    25.36000000
   O     72.11000000    72.58000000    24.76000000
   C     71.76000000    70.88000000    27.35000000
   C     71.72000000    72.07000000    28.29000000
   O     72.77000000    72.51000000    28.83000000
   O     70.65000000    72.61000000    28.63000000
   H     71.99000000    69.35000000    25.56000000
   H     69.88000000    70.90000000    26.42000000
   H     72.80000000    70.76000000    27.05000000
   H     71.49000000    70.02000000    27.96000000
   N     70.11000000    73.25000000    25.45000000
   C     70.21000000    74.52000000    24.75000000
   C     70.42000000    75.79000000    25.56000000
   O     70.78000000    76.83000000    25.01000000
   C     69.08000000    74.66000000    23.74000000
   C     67.74000000    75.13000000    24.30000000
   C     68.97000000    73.43000000    22.84000000
   C     66.99000000    75.95000000    23.26000000
   H     69.33000000    73.02000000    26.04000000
   H     71.15000000    74.51000000    24.19000000
   H     69.40000000    75.46000000    23.07000000
   H     67.85000000    75.72000000    25.21000000
   H     67.16000000    74.30000000    24.69000000
   H     68.49000000    72.65000000    23.42000000
   H     68.20000000    73.64000000    22.10000000
   H     69.97000000    73.16000000    22.50000000
   H     67.53000000    76.73000000    22.72000000
   H     66.72000000    75.22000000    22.49000000
   H     66.22000000    76.52000000    23.78000000
   N     70.19000000    75.72000000    26.87000000
   C     70.20000000    76.84000000    27.79000000
   C     71.19000000    76.71000000    28.94000000
   O     71.37000000    77.62000000    29.75000000
   C     68.79000000    77.16000000    28.29000000
   C     67.94000000    76.00000000    28.78000000
   O     68.44000000    74.88000000    29.00000000
   O     66.72000000    76.09000000    29.06000000
   H     70.06000000    74.79000000    27.24000000
   H     70.54000000    77.78000000    27.37000000
   H     68.23000000    77.72000000    27.54000000
   H     68.87000000    77.87000000    29.12000000
   N     72.01000000    75.65000000    28.97000000
   C     73.22000000    75.57000000    29.76000000
   C     73.14000000    74.95000000    31.15000000
   O     74.15000000    74.94000000    31.85000000
   H     71.76000000    74.83000000    28.44000000
   H     73.60000000    76.59000000    29.82000000
   H     73.97000000    75.04000000    29.19000000
   N     71.94000000    74.62000000    31.65000000
   C     71.77000000    73.99000000    32.94000000
   C     72.39000000    72.61000000    33.02000000
   O     72.60000000    72.08000000    34.11000000
   C     70.28000000    73.99000000    33.29000000
   C     69.38000000    73.28000000    32.29000000
   O     68.40000000    73.89000000    31.80000000
   O     69.68000000    72.18000000    31.78000000
   H     71.18000000    74.70000000    31.00000000
   H     72.23000000    74.63000000    33.69000000
   H     69.94000000    75.02000000    33.28000000
   H     70.03000000    73.57000000    34.27000000
   N     72.65000000    71.97000000    31.87000000
   C     73.32000000    70.69000000    31.80000000
   C     72.34000000    69.55000000    32.06000000
   O     72.86000000    68.56000000    32.57000000
   H     72.42000000    72.45000000    31.02000000
   H     74.19000000    70.54000000    32.43000000
   H     73.61000000    70.56000000    30.75000000
   N     71.05000000    69.66000000    31.76000000
   C     70.05000000    68.62000000    31.64000000
   C     69.26000000    68.77000000    30.34000000
   O     69.10000000    69.84000000    29.77000000
   C     69.13000000    68.70000000    32.85000000
   C     69.81000000    68.30000000    34.16000000
   C     68.96000000    68.20000000    35.42000000
   N     69.63000000    67.84000000    36.52000000
   O     67.73000000    68.14000000    35.45000000
   H     70.73000000    70.61000000    31.61000000
   H     70.56000000    67.66000000    31.70000000
   H     68.18000000    68.20000000    32.62000000
   H     68.77000000    69.73000000    32.89000000
   H     70.61000000    69.01000000    34.34000000
   H     70.34000000    67.37000000    34.00000000
   H     70.63000000    67.94000000    36.56000000
   H     69.11000000    67.53000000    37.32000000
   N     68.68000000    67.64000000    29.92000000
   C     67.63000000    67.60000000    28.93000000
   C     66.21000000    67.51000000    29.47000000
   O     65.83000000    66.61000000    30.21000000
   C     67.85000000    66.59000000    27.81000000
   C     69.13000000    66.77000000    27.00000000
   C     67.94000000    65.18000000    28.38000000
   H     68.96000000    66.78000000    30.37000000
   H     67.67000000    68.55000000    28.39000000
   H     66.98000000    66.64000000    27.15000000
   H     69.05000000    67.64000000    26.35000000
   H     69.92000000    66.93000000    27.74000000
   H     69.23000000    65.89000000    26.38000000
   H     68.12000000    64.48000000    27.56000000
   H     68.65000000    65.00000000    29.18000000
   H     66.99000000    64.92000000    28.85000000
   N     65.40000000    68.45000000    28.98000000
   C     63.95000000    68.38000000    29.01000000
   C     63.43000000    67.99000000    27.64000000
   O     64.21000000    67.82000000    26.70000000
   C     63.46000000    69.73000000    29.53000000
   C     62.96000000    70.64000000    28.42000000
   N     63.83000000    71.61000000    28.11000000
   O     61.88000000    70.58000000    27.83000000
   H     65.88000000    69.08000000    28.35000000
   H     63.67000000    67.54000000    29.65000000
   H     64.25000000    70.27000000    30.04000000
   H     62.62000000    69.51000000    30.20000000
   H     64.68000000    71.55000000    28.65000000
   H     63.68000000    72.18000000    27.29000000
   N     62.14000000    67.72000000    27.42000000
   C     61.70000000    67.10000000    26.19000000
   C     61.95000000    67.85000000    24.89000000
   O     62.15000000    67.21000000    23.86000000
   C     60.21000000    66.77000000    26.36000000
   C     59.65000000    66.10000000    25.13000000
   C     59.93000000    64.75000000    24.90000000
   C     58.90000000    66.78000000    24.16000000
   C     59.48000000    64.09000000    23.75000000
   C     58.48000000    66.14000000    22.98000000
   C     58.71000000    64.77000000    22.77000000
   O     58.26000000    64.19000000    21.62000000
   H     61.46000000    67.93000000    28.13000000
   H     62.25000000    66.16000000    26.10000000
   H     59.70000000    67.73000000    26.40000000
   H     60.07000000    66.13000000    27.23000000
   H     60.45000000    64.23000000    25.69000000
   H     58.61000000    67.81000000    24.31000000
   H     59.60000000    63.03000000    23.59000000
   H     57.85000000    66.64000000    22.27000000
   H     57.83000000    64.84000000    21.06000000
   N     62.09000000    69.18000000    24.98000000
   C     62.48000000    70.04000000    23.88000000
   C     63.91000000    69.77000000    23.44000000
   O     64.24000000    70.15000000    22.32000000
   C     62.29000000    71.50000000    24.30000000
   C     60.79000000    71.73000000    24.12000000
   C     60.41000000    73.19000000    24.36000000
   O     59.20000000    73.47000000    24.45000000
   O     61.32000000    74.04000000    24.37000000
   H     62.03000000    69.59000000    25.90000000
   H     61.86000000    69.94000000    22.99000000
   H     62.69000000    72.16000000    23.53000000
   H     62.64000000    71.78000000    25.29000000
   H     60.24000000    71.16000000    24.87000000
   H     60.39000000    71.49000000    23.13000000
   N     64.70000000    69.03000000    24.22000000
   C     66.11000000    68.75000000    24.05000000
   C     66.40000000    67.27000000    23.83000000
   O     67.24000000    66.78000000    23.08000000
   C     66.82000000    69.34000000    25.26000000
   C     66.82000000    70.86000000    25.35000000
   C     67.20000000    71.33000000    26.76000000
   O     66.68000000    70.80000000    27.77000000
   O     68.04000000    72.23000000    26.95000000
   H     64.26000000    68.98000000    25.13000000
   H     66.48000000    69.20000000    23.13000000
   H     67.88000000    69.07000000    25.17000000
   H     66.46000000    68.85000000    26.16000000
   H     65.90000000    71.35000000    25.05000000
   H     67.57000000    71.29000000    24.69000000
   N     65.55000000    66.43000000    24.42000000
   C     65.53000000    65.00000000    24.22000000
   H     64.94200000    64.76600000    23.33300000
   H     66.54900000    64.63700000    24.08600000
   H     65.08300000    64.51700000    25.08900000
   H     65.00000000    66.83000000    25.17000000
  Ca     68.26000000    72.40000000    29.51000000
   O     65.88000000    73.61000000    28.97000000
   H     66.01000000    74.54000000    29.13000000
   H     65.93000000    73.52000000    28.02000000
   O     66.67000000    71.32000000    31.32000000
   H     67.21000000    71.24000000    32.10000000
   H     65.77000000    71.42000000    31.64000000

Ca 1.00



