%chk=loop4.holoCaM.run54.water2.chk
%nprocshared=20
%mem=10GB
%nosave
#b3lyp/svp scf=(tight,noincore,xqc) Test 
#IOP(5/87=12) Density=Current Pop=(MK,readradii) iop(6/33=2) iop(6/42=6)

loop4.holoCaM.run54.water2 

   -3  1 
   C     86.11000000    47.76000000    -5.45500000
   C     86.64000000    49.14000000    -5.07500000
   O     86.76000000    49.99000000    -5.94500000
   H     85.16800000    47.86900000    -5.99300000
   H     86.83500000    47.25400000    -6.09200000
   H     85.94600000    47.17200000    -4.55200000
   N     86.97000000    49.42000000    -3.80500000
   C     87.09000000    50.74000000    -3.22500000
   C     88.41000000    51.49000000    -3.35500000
   O     89.49000000    51.05000000    -2.96500000
   C     86.87000000    50.56000000    -1.72500000
   C     86.37000000    51.77000000    -0.94500000
   O     86.08000000    51.58000000     0.26500000
   O     86.03000000    52.84000000    -1.48500000
   H     87.07000000    48.70000000    -3.10500000
   H     86.24000000    51.38000000    -3.46500000
   H     87.80000000    50.24000000    -1.26500000
   H     86.20000000    49.71000000    -1.65500000
   N     88.33000000    52.70000000    -3.91500000
   C     89.36000000    53.71000000    -3.85500000
   C     89.11000000    54.79000000    -2.80500000
   O     89.97000000    55.64000000    -2.59500000
   C     89.54000000    54.37000000    -5.22500000
   C     88.34000000    55.06000000    -5.86500000
   C     90.23000000    53.43000000    -6.20500000
   C     88.62000000    55.92000000    -7.09500000
   H     87.45000000    52.97000000    -4.33500000
   H     90.30000000    53.30000000    -3.48500000
   H     90.20000000    55.23000000    -5.11500000
   H     87.83000000    55.68000000    -5.13500000
   H     87.65000000    54.29000000    -6.19500000
   H     91.19000000    53.10000000    -5.80500000
   H     89.72000000    52.49000000    -6.40500000
   H     90.45000000    53.91000000    -7.16500000
   H     89.08000000    55.31000000    -7.87500000
   H     87.70000000    56.39000000    -7.43500000
   H     89.38000000    56.68000000    -6.88500000
   N     87.96000000    54.70000000    -2.13500000
   C     87.76000000    55.66000000    -1.07500000
   C     88.26000000    55.21000000     0.29500000
   O     88.70000000    56.01000000     1.10500000
   C     86.29000000    56.07000000    -0.92500000
   C     85.47000000    56.44000000    -2.14500000
   O     85.48000000    57.62000000    -2.57500000
   O     84.72000000    55.57000000    -2.64500000
   H     87.24000000    54.00000000    -2.24500000
   H     88.33000000    56.53000000    -1.40500000
   H     86.29000000    56.89000000    -0.20500000
   H     85.73000000    55.37000000    -0.31500000
   N     88.14000000    53.90000000     0.55500000
   C     88.71000000    53.32000000     1.76500000
   C     87.66000000    52.99000000     2.81500000
   O     88.07000000    52.41000000     3.81500000
   H     87.67000000    53.31000000    -0.11500000
   H     89.46000000    53.92000000     2.27500000
   H     89.21000000    52.41000000     1.44500000
   N     86.37000000    53.25000000     2.62500000
   C     85.35000000    53.27000000     3.65500000
   C     84.46000000    52.04000000     3.68500000
   O     83.44000000    51.99000000     4.37500000
   C     84.56000000    54.55000000     3.41500000
   C     83.85000000    54.68000000     2.07500000
   O     83.31000000    55.80000000     1.90500000
   O     83.83000000    53.75000000     1.23500000
   H     86.04000000    53.51000000     1.70500000
   H     85.80000000    53.34000000     4.64500000
   H     85.19000000    55.42000000     3.59500000
   H     83.79000000    54.49000000     4.18500000
   N     84.73000000    51.12000000     2.74500000
   C     84.03000000    49.85000000     2.67500000
   C     82.56000000    49.91000000     2.30500000
   O     81.89000000    48.89000000     2.50500000
   H     85.48000000    51.26000000     2.09500000
   H     84.13000000    49.32000000     3.62500000
   H     84.37000000    49.37000000     1.75500000
   N     82.02000000    51.06000000     1.91500000
   C     80.65000000    51.21000000     1.47500000
   C     80.56000000    51.98000000     0.16500000
   O     81.54000000    52.63000000    -0.21500000
   C     79.93000000    51.89000000     2.63500000
   C     79.64000000    51.05000000     3.87500000
   C     78.63000000    51.75000000     4.76500000
   N     79.06000000    52.74000000     5.54500000
   O     77.44000000    51.44000000     4.73500000
   H     82.65000000    51.85000000     1.80500000
   H     80.23000000    50.23000000     1.28500000
   H     78.99000000    52.17000000     2.16500000
   H     80.46000000    52.82000000     2.88500000
   H     80.57000000    50.94000000     4.44500000
   H     79.19000000    50.14000000     3.48500000
   H     80.04000000    52.95000000     5.59500000
   H     78.26000000    53.27000000     5.85500000
   N     79.40000000    51.94000000    -0.48500000
   C     79.25000000    52.48000000    -1.82500000
   C     78.10000000    53.46000000    -2.00500000
   O     76.94000000    53.16000000    -1.71500000
   C     79.21000000    51.23000000    -2.70500000
   C     80.52000000    50.45000000    -2.82500000
   C     78.03000000    50.29000000    -2.43500000
   H     78.59000000    51.47000000    -0.10500000
   H     80.11000000    53.03000000    -2.18500000
   H     79.08000000    51.58000000    -3.72500000
   H     81.00000000    50.10000000    -1.91500000
   H     80.43000000    49.69000000    -3.60500000
   H     81.14000000    51.08000000    -3.46500000
   H     78.18000000    49.33000000    -2.94500000
   H     77.81000000    49.96000000    -1.42500000
   H     77.12000000    50.78000000    -2.75500000
   N     78.48000000    54.65000000    -2.46500000
   C     77.50000000    55.69000000    -2.70500000
   C     76.97000000    55.46000000    -4.11500000
   O     77.44000000    54.59000000    -4.84500000
   C     78.21000000    57.02000000    -2.52500000
   C     78.90000000    57.61000000    -3.75500000
   N     80.14000000    57.18000000    -3.97500000
   O     78.41000000    58.42000000    -4.53500000
   H     79.48000000    54.83000000    -2.51500000
   H     76.63000000    55.49000000    -2.07500000
   H     78.88000000    56.89000000    -1.67500000
   H     77.42000000    57.69000000    -2.17500000
   H     80.55000000    56.42000000    -3.44500000
   H     80.70000000    57.64000000    -4.68500000
   N     76.08000000    56.37000000    -4.52500000
   C     75.54000000    56.43000000    -5.86500000
   C     76.47000000    56.16000000    -7.03500000
   O     76.32000000    55.25000000    -7.84500000
   C     74.98000000    57.84000000    -6.06500000
   C     74.33000000    57.86000000    -7.42500000
   C     73.13000000    57.20000000    -7.70500000
   C     75.12000000    58.39000000    -8.45500000
   C     72.59000000    57.16000000    -9.00500000
   C     74.57000000    58.42000000    -9.73500000
   C     73.37000000    57.74000000   -10.02500000
   O     73.00000000    57.66000000   -11.33500000
   H     75.60000000    56.91000000    -3.81500000
   H     74.75000000    55.69000000    -5.95500000
   H     75.71000000    58.64000000    -6.02500000
   H     74.28000000    58.07000000    -5.26500000
   H     72.65000000    56.67000000    -6.89500000
   H     76.01000000    58.92000000    -8.11500000
   H     71.59000000    56.77000000    -9.13500000
   H     75.12000000    58.81000000   -10.58500000
   H     73.69000000    57.99000000   -11.91500000
   N     77.57000000    56.91000000    -7.09500000
   C     78.61000000    56.89000000    -8.10500000
   C     79.43000000    55.60000000    -8.12500000
   O     80.14000000    55.35000000    -9.09500000
   C     79.62000000    58.02000000    -7.90500000
   C     79.02000000    59.42000000    -7.99500000
   C     80.07000000    60.50000000    -8.24500000
   O     79.85000000    61.35000000    -9.12500000
   O     81.06000000    60.47000000    -7.47500000
   H     77.74000000    57.52000000    -6.30500000
   H     78.19000000    56.81000000    -9.10500000
   H     80.40000000    57.83000000    -8.65500000
   H     80.02000000    57.88000000    -6.90500000
   H     78.43000000    59.61000000    -7.10500000
   H     78.27000000    59.48000000    -8.78500000
   N     79.40000000    54.76000000    -7.09500000
   C     79.96000000    53.42000000    -6.99500000
   C     78.94000000    52.30000000    -7.13500000
   O     79.20000000    51.19000000    -7.57500000
   C     80.66000000    53.33000000    -5.64500000
   C     81.89000000    54.22000000    -5.50500000
   C     82.27000000    53.93000000    -4.06500000
   O     81.66000000    54.47000000    -3.11500000
   O     83.23000000    53.16000000    -3.82500000
   H     78.77000000    55.08000000    -6.37500000
   H     80.74000000    53.28000000    -7.73500000
   H     81.10000000    52.35000000    -5.46500000
   H     79.88000000    53.58000000    -4.91500000
   H     81.44000000    55.21000000    -5.64500000
   H     82.58000000    53.99000000    -6.31500000
   N     77.66000000    52.55000000    -6.84500000
   C     76.52000000    51.70000000    -7.13500000
   H     75.69400000    52.31200000    -7.49700000
   H     76.79400000    50.97200000    -7.89800000
   H     76.21500000    51.17900000    -6.22800000
   H     77.51000000    53.45000000    -6.41500000
  Ca     83.58000000    53.75000000    -1.28500000
   O     82.50000000    56.21000000    -0.54500000
   H     82.45000000    56.30000000     0.40500000
   H     82.49000000    57.11000000    -0.86500000
   O     83.51000000    50.98000000    -1.81500000
   H     83.47000000    50.09000000    -1.46500000
   H     83.62000000    50.87000000    -2.75500000

Ca 1.00



