%chk=loop1.holoCaM.run72.water2.chk
%nprocshared=20
%mem=10GB
%nosave
#b3lyp/svp scf=(tight,noincore,xqc) Test 
#IOP(5/87=12) Density=Current Pop=(MK,readradii) iop(6/33=2) iop(6/42=6)

loop1.holoCaM.run72.water2 

   0  1 
   C     61.49000000    76.70000000    13.99000000
   C     60.08000000    76.32000000    14.43000000
   O     59.32000000    75.97000000    13.53000000
   H     62.18500000    75.91300000    14.28100000
   H     61.51300000    76.82200000    12.90700000
   H     61.78100000    77.63500000    14.46800000
   N     59.68000000    76.51000000    15.69000000
   C     58.31000000    76.37000000    16.15000000
   C     57.58000000    77.62000000    15.66000000
   O     57.97000000    78.71000000    16.08000000
   C     58.31000000    76.15000000    17.66000000
   C     56.93000000    76.06000000    18.29000000
   O     56.87000000    76.22000000    19.53000000
   O     55.90000000    75.85000000    17.60000000
   H     60.31000000    77.04000000    16.28000000
   H     57.98000000    75.48000000    15.63000000
   H     58.96000000    76.92000000    18.08000000
   H     58.67000000    75.13000000    17.80000000
   N     56.53000000    77.49000000    14.85000000
   C     55.95000000    78.61000000    14.14000000
   C     54.90000000    79.33000000    14.98000000
   O     54.54000000    80.49000000    14.81000000
   C     55.36000000    78.19000000    12.80000000
   C     55.24000000    79.29000000    11.75000000
   C     54.47000000    78.83000000    10.51000000
   C     54.14000000    79.99000000     9.57000000
   N     53.84000000    79.40000000     8.26000000
   H     56.29000000    76.55000000    14.55000000
   H     56.65000000    79.41000000    13.93000000
   H     54.43000000    77.65000000    12.95000000
   H     55.97000000    77.44000000    12.30000000
   H     56.21000000    79.64000000    11.40000000
   H     54.72000000    80.14000000    12.18000000
   H     53.56000000    78.39000000    10.92000000
   H     55.13000000    78.18000000     9.94000000
   H     54.88000000    80.78000000     9.44000000
   H     53.27000000    80.53000000     9.95000000
   H     53.19000000    78.63000000     8.31000000
   H     53.35000000    80.12000000     7.74000000
   H     54.64000000    79.15000000     7.70000000
   N     54.26000000    78.60000000    15.90000000
   C     53.06000000    78.86000000    16.66000000
   C     53.41000000    79.05000000    18.13000000
   O     52.70000000    79.79000000    18.80000000
   C     51.98000000    77.82000000    16.43000000
   C     52.25000000    76.33000000    16.61000000
   O     51.86000000    75.54000000    15.73000000
   O     52.88000000    75.93000000    17.61000000
   H     54.61000000    77.65000000    16.00000000
   H     52.62000000    79.83000000    16.41000000
   H     51.54000000    77.86000000    15.43000000
   H     51.17000000    78.03000000    17.13000000
   N     54.49000000    78.48000000    18.67000000
   C     54.78000000    78.70000000    20.08000000
   C     54.13000000    77.75000000    21.08000000
   O     54.14000000    78.03000000    22.27000000
   H     55.07000000    77.87000000    18.11000000
   H     54.71000000    79.73000000    20.42000000
   H     55.84000000    78.46000000    20.18000000
   N     53.69000000    76.59000000    20.57000000
   C     53.27000000    75.57000000    21.51000000
   C     54.35000000    74.97000000    22.40000000
   O     54.07000000    74.30000000    23.40000000
   C     52.36000000    74.53000000    20.86000000
   C     53.05000000    73.80000000    19.72000000
   O     52.34000000    73.27000000    18.83000000
   O     54.29000000    73.69000000    19.61000000
   H     53.73000000    76.38000000    19.59000000
   H     52.68000000    76.11000000    22.25000000
   H     51.41000000    74.94000000    20.52000000
   H     52.11000000    73.76000000    21.59000000
   N     55.60000000    75.10000000    21.97000000
   C     56.79000000    74.48000000    22.53000000
   C     57.43000000    73.45000000    21.61000000
   O     58.43000000    72.90000000    22.06000000
   H     55.66000000    75.61000000    21.10000000
   H     56.61000000    73.83000000    23.39000000
   H     57.58000000    75.17000000    22.82000000
   N     56.82000000    73.08000000    20.48000000
   C     57.18000000    71.86000000    19.77000000
   C     57.22000000    72.00000000    18.26000000
   O     56.62000000    72.90000000    17.67000000
   C     56.20000000    70.75000000    20.14000000
   C     56.06000000    70.44000000    21.63000000
   O     54.90000000    71.09000000    19.71000000
   H     55.94000000    73.48000000    20.20000000
   H     58.15000000    71.58000000    20.16000000
   H     56.65000000    69.82000000    19.81000000
   H     54.70000000    72.02000000    19.79000000
   H     57.09000000    70.46000000    21.99000000
   H     55.54000000    71.24000000    22.16000000
   H     55.46000000    69.54000000    21.76000000
   N     57.94000000    71.12000000    17.57000000
   C     57.95000000    71.05000000    16.12000000
   C     57.15000000    69.88000000    15.57000000
   O     57.51000000    68.74000000    15.86000000
   C     59.36000000    71.03000000    15.54000000
   C     60.21000000    72.18000000    16.08000000
   C     59.46000000    70.99000000    14.02000000
   C     61.73000000    72.05000000    16.07000000
   H     58.34000000    70.33000000    18.07000000
   H     57.60000000    71.96000000    15.63000000
   H     59.86000000    70.11000000    15.86000000
   H     59.98000000    72.44000000    17.11000000
   H     59.95000000    73.02000000    15.44000000
   H     60.51000000    70.82000000    13.79000000
   H     58.84000000    70.18000000    13.64000000
   H     59.15000000    71.90000000    13.51000000
   H     62.16000000    72.99000000    16.42000000
   H     62.08000000    71.25000000    16.71000000
   H     62.22000000    71.83000000    15.12000000
   N     55.97000000    70.07000000    14.97000000
   C     55.34000000    69.03000000    14.19000000
   C     55.89000000    68.92000000    12.77000000
   O     56.69000000    69.75000000    12.36000000
   C     53.83000000    69.24000000    14.22000000
   C     53.04000000    70.34000000    13.51000000
   O     53.22000000    68.02000000    13.85000000
   H     55.75000000    71.05000000    14.86000000
   H     55.53000000    68.05000000    14.63000000
   H     53.59000000    69.42000000    15.26000000
   H     52.34000000    68.03000000    14.24000000
   H     53.19000000    70.12000000    12.45000000
   H     51.98000000    70.31000000    13.77000000
   H     53.54000000    71.25000000    13.81000000
   N     55.34000000    68.01000000    11.96000000
   C     55.85000000    67.59000000    10.67000000
   C     55.94000000    68.68000000     9.62000000
   O     56.97000000    68.73000000     8.94000000
   C     54.97000000    66.48000000    10.11000000
   C     55.55000000    65.70000000     8.93000000
   O     54.66000000    65.55000000    11.12000000
   H     54.57000000    67.52000000    12.39000000
   H     56.85000000    67.21000000    10.88000000
   H     54.00000000    66.90000000     9.87000000
   H     53.82000000    65.20000000    10.83000000
   H     55.85000000    66.36000000     8.11000000
   H     56.36000000    65.10000000     9.35000000
   H     54.77000000    65.03000000     8.58000000
   N     54.93000000    69.55000000     9.52000000
   C     54.95000000    70.67000000     8.60000000
   C     55.93000000    71.73000000     9.08000000
   O     56.62000000    72.32000000     8.26000000
   C     53.58000000    71.32000000     8.65000000
   C     53.34000000    72.47000000     7.67000000
   C     52.04000000    73.24000000     7.89000000
   C     52.15000000    74.47000000     7.00000000
   N     50.84000000    75.14000000     7.07000000
   H     54.13000000    69.43000000    10.12000000
   H     55.06000000    70.41000000     7.54000000
   H     53.41000000    71.67000000     9.66000000
   H     52.95000000    70.48000000     8.37000000
   H     53.49000000    72.06000000     6.68000000
   H     54.08000000    73.23000000     7.93000000
   H     51.87000000    73.46000000     8.94000000
   H     51.18000000    72.64000000     7.58000000
   H     52.29000000    74.08000000     5.99000000
   H     53.01000000    75.12000000     7.17000000
   H     50.06000000    74.53000000     6.87000000
   H     50.67000000    75.58000000     7.96000000
   H     50.76000000    75.89000000     6.39000000
   N     56.20000000    72.01000000    10.36000000
   C     57.27000000    72.88000000    10.83000000
   C     58.65000000    72.29000000    10.60000000
   O     59.61000000    73.02000000    10.32000000
   C     57.14000000    73.12000000    12.33000000
   C     55.89000000    73.91000000    12.70000000
   C     55.60000000    73.86000000    14.19000000
   O     55.48000000    72.82000000    14.88000000
   O     55.14000000    74.86000000    14.78000000
   H     55.69000000    71.47000000    11.04000000
   H     57.18000000    73.79000000    10.23000000
   H     58.01000000    73.61000000    12.76000000
   H     57.05000000    72.15000000    12.81000000
   H     54.95000000    73.56000000    12.27000000
   H     56.06000000    74.95000000    12.42000000
   N     58.77000000    70.97000000    10.73000000
   C     59.96000000    70.19000000    10.48000000
   H     60.77200000    70.55600000    11.10800000
   H     59.76500000    69.14300000    10.71300000
   H     60.24200000    70.28300000     9.43100000
   H     57.95000000    70.51000000    11.10000000
  Ca     54.22000000    73.81000000    16.92000000
   O     53.94000000    71.10000000    17.16000000
   H     53.02000000    70.84000000    17.17000000
   H     54.26000000    70.90000000    18.04000000
   O     51.80000000    73.09000000    15.85000000
   H     50.93000000    72.71000000    16.03000000
   H     51.65000000    74.03000000    15.82000000

Ca 1.00



