%chk=loop2.holoCaM-CaMKII.run45.water2.chk
%nprocshared=20
%mem=10GB
%nosave
#b3lyp/svp scf=(tight,noincore,xqc) Test 
#IOP(5/87=12) Density=Current Pop=(MK,readradii) iop(6/33=2) iop(6/42=6)

loop2.holoCaM-CaMKII.run45.water2 

   -2  1 
   C    -12.85000000    30.24000000     6.55100000
   C    -12.67000000    29.07000000     5.60100000
   O    -11.99000000    29.25000000     4.59100000
   H    -13.88200000    30.26700000     6.90200000
   H    -12.18000000    30.12400000     7.40300000
   H    -12.61900000    31.17000000     6.03100000
   N    -13.24000000    27.90000000     5.90100000
   C    -12.98000000    26.65000000     5.20100000
   C    -13.66000000    26.48000000     3.85100000
   O    -14.88000000    26.50000000     3.71100000
   C    -13.32000000    25.40000000     6.01100000
   C    -12.86000000    24.07000000     5.42100000
   O    -13.36000000    23.00000000     5.84100000
   O    -11.87000000    24.11000000     4.67100000
   H    -13.61000000    27.81000000     6.83100000
   H    -11.91000000    26.60000000     5.00100000
   H    -14.40000000    25.47000000     6.10100000
   H    -12.88000000    25.43000000     7.00100000
   N    -12.94000000    26.23000000     2.76100000
   C    -13.38000000    26.08000000     1.38100000
   C    -13.39000000    24.64000000     0.87100000
   O    -13.67000000    24.49000000    -0.30900000
   C    -12.70000000    27.12000000     0.49100000
   H    -11.95000000    26.13000000     2.88100000
   H    -14.44000000    26.29000000     1.44100000
   H    -11.62000000    27.06000000     0.38100000
   H    -13.20000000    26.95000000    -0.46900000
   H    -12.98000000    28.11000000     0.84100000
   N    -12.96000000    23.63000000     1.62100000
   C    -12.68000000    22.30000000     1.09100000
   C    -12.88000000    21.11000000     2.01100000
   O    -12.81000000    19.98000000     1.54100000
   C    -11.24000000    22.31000000     0.61100000
   C    -10.27000000    22.75000000     1.69100000
   O    -10.30000000    22.22000000     2.82100000
   O     -9.46000000    23.69000000     1.55100000
   H    -12.67000000    23.86000000     2.56100000
   H    -13.37000000    22.18000000     0.25100000
   H    -11.12000000    22.97000000    -0.24900000
   H    -10.97000000    21.32000000     0.22100000
   N    -13.13000000    21.23000000     3.32100000
   C    -13.37000000    20.19000000     4.30100000
   C    -12.10000000    19.43000000     4.66100000
   O    -12.23000000    18.39000000     5.31100000
   H    -13.26000000    22.20000000     3.57100000
   H    -14.12000000    19.54000000     3.86100000
   H    -13.81000000    20.57000000     5.22100000
   N    -10.87000000    19.90000000     4.43100000
   C     -9.66000000    19.18000000     4.75100000
   C     -9.15000000    19.23000000     6.19100000
   O     -8.10000000    18.64000000     6.44100000
   C     -8.51000000    19.57000000     3.82100000
   C     -7.96000000    20.99000000     3.89100000
   N     -7.00000000    21.41000000     3.05100000
   O     -8.29000000    21.77000000     4.78100000
   H    -10.80000000    20.82000000     4.02100000
   H     -9.75000000    18.11000000     4.57100000
   H     -8.85000000    19.47000000     2.79100000
   H     -7.66000000    18.91000000     4.01100000
   H     -6.67000000    20.85000000     2.29100000
   H     -6.60000000    22.33000000     3.19100000
   N     -9.82000000    19.98000000     7.06100000
   C     -9.49000000    20.19000000     8.46100000
   C     -8.31000000    21.09000000     8.79100000
   O     -7.70000000    21.02000000     9.86100000
   H    -10.70000000    20.43000000     6.87100000
   H     -9.33000000    19.20000000     8.89100000
   H    -10.41000000    20.50000000     8.95100000
   N     -7.92000000    21.99000000     7.88100000
   C     -6.81000000    22.91000000     7.99100000
   C     -7.07000000    24.27000000     7.36100000
   O     -7.75000000    24.37000000     6.34100000
   C     -5.51000000    22.32000000     7.44100000
   C     -4.83000000    21.18000000     8.19100000
   O     -5.73000000    21.89000000     6.11100000
   H     -8.55000000    22.19000000     7.11100000
   H     -6.64000000    23.03000000     9.06100000
   H     -4.70000000    23.05000000     7.43100000
   H     -6.64000000    22.11000000     5.89100000
   H     -4.75000000    21.32000000     9.27100000
   H     -5.42000000    20.27000000     8.06100000
   H     -3.89000000    20.88000000     7.74100000
   N     -6.44000000    25.32000000     7.89100000
   C     -6.40000000    26.60000000     7.21100000
   C     -5.31000000    26.64000000     6.15100000
   O     -4.13000000    26.48000000     6.46100000
   C     -6.31000000    27.81000000     8.13100000
   C     -7.67000000    28.03000000     8.78100000
   C     -5.90000000    29.08000000     7.38100000
   C     -7.45000000    28.87000000    10.04100000
   H     -5.64000000    25.19000000     8.50100000
   H     -7.33000000    26.78000000     6.66100000
   H     -5.58000000    27.61000000     8.92100000
   H     -8.17000000    27.11000000     9.09100000
   H     -8.32000000    28.57000000     8.09100000
   H     -6.74000000    29.28000000     6.72100000
   H     -5.70000000    29.92000000     8.05100000
   H     -4.96000000    28.90000000     6.86100000
   H     -8.40000000    29.24000000    10.43100000
   H     -6.79000000    28.34000000    10.72100000
   H     -6.83000000    29.70000000     9.71100000
   N     -5.67000000    26.70000000     4.86100000
   C     -4.70000000    26.84000000     3.79100000
   C     -4.40000000    28.32000000     3.56100000
   O     -5.16000000    29.17000000     4.01100000
   C     -5.20000000    26.08000000     2.57100000
   C     -5.94000000    24.78000000     2.83100000
   O     -7.08000000    24.78000000     3.35100000
   O     -5.39000000    23.73000000     2.44100000
   H     -6.66000000    26.76000000     4.69100000
   H     -3.70000000    26.55000000     4.11100000
   H     -4.33000000    25.87000000     1.95100000
   H     -5.80000000    26.72000000     1.92100000
   N     -3.34000000    28.67000000     2.83100000
   C     -2.93000000    30.04000000     2.61100000
   C     -3.96000000    30.93000000     1.93100000
   O     -4.17000000    32.04000000     2.42100000
   C     -1.54000000    30.11000000     1.97100000
   C     -0.82000000    31.43000000     2.07100000
   C     -0.93000000    32.29000000     0.96100000
   C     -0.06000000    31.77000000     3.19100000
   C     -0.35000000    33.55000000     1.12100000
   C      0.45000000    33.06000000     3.34100000
   C      0.27000000    33.98000000     2.30100000
   H     -2.69000000    27.93000000     2.58100000
   H     -2.78000000    30.47000000     3.60100000
   H     -1.52000000    29.78000000     0.93100000
   H     -0.91000000    29.30000000     2.35100000
   H     -1.58000000    31.99000000     0.15100000
   H     -0.09000000    31.06000000     4.01100000
   H     -0.44000000    34.14000000     0.22100000
   H      0.87000000    33.34000000     4.30100000
   H      0.51000000    35.02000000     2.42100000
   N     -4.62000000    30.41000000     0.90100000
   C     -5.80000000    31.08000000     0.38100000
   C     -6.92000000    31.29000000     1.38100000
   O     -7.75000000    32.15000000     1.07100000
   C     -6.19000000    30.30000000    -0.86900000
   C     -5.01000000    29.44000000    -1.27900000
   C     -4.33000000    29.26000000     0.07100000
   H     -5.56000000    32.07000000     0.00100000
   H     -7.03000000    29.65000000    -0.62900000
   H     -6.54000000    30.96000000    -1.66900000
   H     -5.37000000    28.52000000    -1.73900000
   H     -4.41000000    30.02000000    -1.97900000
   H     -4.45000000    28.30000000     0.57100000
   H     -3.25000000    29.32000000    -0.08900000
   N     -7.05000000    30.60000000     2.51100000
   C     -8.07000000    30.78000000     3.52100000
   C     -7.60000000    31.72000000     4.62100000
   O     -8.24000000    32.71000000     4.96100000
   C     -8.53000000    29.44000000     4.10100000
   C     -8.82000000    28.38000000     3.04100000
   C     -9.35000000    27.12000000     3.71100000
   O    -10.11000000    26.41000000     3.01100000
   O     -9.03000000    26.84000000     4.88100000
   H     -6.36000000    29.89000000     2.71100000
   H     -8.93000000    31.32000000     3.12100000
   H     -9.38000000    29.64000000     4.76100000
   H     -7.71000000    29.17000000     4.75100000
   H     -7.96000000    28.04000000     2.46100000
   H     -9.50000000    28.78000000     2.29100000
   N     -6.35000000    31.59000000     5.07100000
   C     -5.61000000    32.53000000     5.89100000
   H     -4.69600000    32.82100000     5.37400000
   H     -6.22100000    33.41400000     6.07300000
   H     -5.35500000    32.06200000     6.84200000
   H     -5.83000000    30.85000000     4.62100000
  Ca     -9.34900000    24.18000000     4.25000000
   O    -10.27900000    25.45000000     6.83000000
   H     -9.97900000    26.07000000     6.16000000
   H    -10.26900000    25.95000000     7.64000000
   O    -10.55900000    22.78000000     6.68000000
   H    -10.40900000    23.62000000     7.12000000
   H    -11.51900000    22.71000000     6.62000000

Ca 1.00



