%chk=loop1.holoCaM.run92.water2.chk
%nprocshared=20
%mem=10GB
%nosave
#b3lyp/svp scf=(tight,noincore,xqc) Test 
#IOP(5/87=12) Density=Current Pop=(MK,readradii) iop(6/33=2) iop(6/42=6)

loop1.holoCaM.run92.water2 

   0  1 
   C     35.23000000    77.22000000    42.26000000
   C     33.76000000    76.96000000    42.58000000
   O     32.98000000    77.61000000    41.89000000
   H     35.84000000    76.41900000    42.67800000
   H     35.36700000    77.25300000    41.17900000
   H     35.53400000    78.17200000    42.69500000
   N     33.45000000    76.05000000    43.51000000
   C     32.16000000    75.89000000    44.16000000
   C     32.07000000    76.88000000    45.30000000
   O     32.51000000    76.62000000    46.42000000
   C     31.93000000    74.43000000    44.55000000
   C     30.61000000    74.21000000    45.26000000
   O     30.33000000    73.07000000    45.70000000
   O     29.86000000    75.18000000    45.53000000
   H     34.12000000    75.33000000    43.75000000
   H     31.41000000    76.22000000    43.45000000
   H     32.84000000    74.07000000    45.02000000
   H     31.86000000    73.98000000    43.55000000
   N     31.38000000    78.00000000    45.09000000
   C     31.34000000    79.18000000    45.94000000
   C     30.88000000    78.83000000    47.34000000
   O     31.24000000    79.44000000    48.34000000
   C     30.30000000    80.20000000    45.49000000
   C     30.19000000    81.57000000    46.15000000
   C     31.41000000    82.44000000    45.86000000
   C     31.33000000    83.83000000    46.48000000
   N     30.82000000    83.71000000    47.86000000
   H     30.77000000    78.03000000    44.28000000
   H     32.30000000    79.65000000    46.14000000
   H     29.31000000    79.77000000    45.65000000
   H     30.42000000    80.26000000    44.41000000
   H     30.00000000    81.51000000    47.22000000
   H     29.42000000    82.12000000    45.60000000
   H     31.45000000    82.60000000    44.78000000
   H     32.32000000    81.93000000    46.18000000
   H     30.68000000    84.47000000    45.89000000
   H     32.22000000    84.43000000    46.32000000
   H     30.48000000    84.63000000    48.11000000
   H     29.96000000    83.18000000    47.83000000
   H     31.48000000    83.41000000    48.56000000
   N     30.07000000    77.78000000    47.50000000
   C     29.28000000    77.58000000    48.70000000
   C     29.03000000    76.11000000    49.02000000
   O     28.43000000    75.78000000    50.04000000
   C     28.00000000    78.40000000    48.53000000
   C     27.21000000    78.08000000    47.26000000
   O     27.48000000    77.16000000    46.46000000
   O     26.14000000    78.72000000    47.10000000
   H     29.69000000    77.34000000    46.67000000
   H     29.76000000    78.05000000    49.55000000
   H     28.26000000    79.45000000    48.56000000
   H     27.36000000    78.14000000    49.37000000
   N     29.52000000    75.13000000    48.27000000
   C     29.93000000    73.83000000    48.77000000
   C     28.83000000    72.77000000    48.80000000
   O     28.93000000    71.85000000    49.61000000
   H     29.71000000    75.34000000    47.30000000
   H     30.33000000    73.95000000    49.78000000
   H     30.69000000    73.37000000    48.14000000
   N     27.77000000    72.81000000    47.99000000
   C     26.75000000    71.83000000    47.68000000
   C     27.34000000    70.65000000    46.93000000
   O     26.53000000    69.79000000    46.59000000
   C     25.60000000    72.47000000    46.91000000
   C     26.10000000    73.52000000    45.94000000
   O     26.84000000    73.27000000    44.96000000
   O     25.78000000    74.72000000    46.09000000
   H     27.76000000    73.73000000    47.57000000
   H     26.39000000    71.42000000    48.63000000
   H     24.96000000    72.89000000    47.69000000
   H     24.98000000    71.80000000    46.30000000
   N     28.59000000    70.79000000    46.47000000
   C     29.20000000    69.79000000    45.62000000
   C     29.05000000    69.99000000    44.12000000
   O     29.19000000    69.02000000    43.38000000
   H     29.19000000    71.54000000    46.77000000
   H     28.77000000    68.80000000    45.76000000
   H     30.26000000    69.86000000    45.86000000
   N     28.54000000    71.16000000    43.70000000
   C     28.33000000    71.50000000    42.31000000
   C     28.63000000    72.95000000    41.94000000
   O     28.89000000    73.79000000    42.79000000
   C     26.95000000    71.11000000    41.78000000
   C     26.79000000    69.61000000    41.54000000
   O     25.95000000    71.48000000    42.71000000
   H     28.34000000    71.91000000    44.35000000
   H     29.04000000    70.97000000    41.68000000
   H     26.79000000    71.63000000    40.84000000
   H     26.17000000    72.35000000    43.04000000
   H     27.46000000    69.23000000    40.77000000
   H     26.89000000    69.09000000    42.49000000
   H     25.76000000    69.32000000    41.32000000
   N     28.70000000    73.29000000    40.65000000
   C     28.83000000    74.58000000    40.00000000
   C     27.63000000    74.98000000    39.16000000
   O     27.10000000    74.25000000    38.32000000
   C     30.17000000    74.57000000    39.27000000
   C     31.39000000    74.48000000    40.18000000
   C     30.42000000    75.64000000    38.21000000
   C     32.80000000    74.31000000    39.62000000
   H     28.62000000    72.47000000    40.06000000
   H     28.98000000    75.30000000    40.81000000
   H     30.23000000    73.63000000    38.72000000
   H     31.25000000    73.76000000    40.98000000
   H     31.49000000    75.39000000    40.77000000
   H     31.31000000    75.25000000    37.71000000
   H     29.54000000    75.68000000    37.56000000
   H     30.83000000    76.57000000    38.59000000
   H     32.78000000    73.39000000    39.04000000
   H     33.13000000    75.14000000    39.00000000
   H     33.50000000    74.10000000    40.44000000
   N     27.37000000    76.28000000    39.25000000
   C     26.33000000    76.97000000    38.51000000
   C     26.82000000    78.31000000    37.99000000
   O     27.82000000    78.89000000    38.41000000
   C     25.02000000    77.19000000    39.26000000
   C     24.25000000    75.90000000    39.55000000
   O     25.22000000    77.90000000    40.46000000
   H     27.91000000    76.77000000    39.95000000
   H     26.00000000    76.39000000    37.64000000
   H     24.30000000    77.75000000    38.67000000
   H     25.92000000    77.46000000    40.95000000
   H     23.65000000    75.56000000    38.70000000
   H     24.88000000    75.12000000    40.00000000
   H     23.53000000    76.24000000    40.28000000
   N     26.23000000    78.73000000    36.87000000
   C     26.65000000    79.83000000    36.02000000
   C     26.87000000    81.13000000    36.77000000
   O     27.76000000    81.87000000    36.35000000
   C     25.60000000    80.10000000    34.95000000
   C     26.07000000    80.89000000    33.74000000
   O     25.30000000    78.89000000    34.29000000
   H     25.59000000    78.08000000    36.43000000
   H     27.56000000    79.49000000    35.53000000
   H     24.68000000    80.53000000    35.35000000
   H     24.53000000    78.51000000    34.72000000
   H     27.00000000    80.48000000    33.34000000
   H     25.30000000    80.89000000    32.97000000
   H     26.24000000    81.94000000    34.01000000
   N     26.26000000    81.36000000    37.93000000
   C     26.59000000    82.51000000    38.75000000
   C     27.96000000    82.36000000    39.39000000
   O     28.67000000    83.30000000    39.71000000
   C     25.46000000    82.57000000    39.77000000
   C     25.56000000    83.51000000    40.97000000
   C     24.20000000    83.69000000    41.65000000
   C     24.21000000    84.81000000    42.68000000
   N     22.88000000    85.00000000    43.30000000
   H     25.47000000    80.77000000    38.16000000
   H     26.42000000    83.39000000    38.13000000
   H     25.28000000    81.57000000    40.16000000
   H     24.62000000    82.94000000    39.18000000
   H     25.89000000    84.44000000    40.51000000
   H     26.25000000    83.09000000    41.70000000
   H     23.85000000    82.77000000    42.11000000
   H     23.47000000    84.02000000    40.91000000
   H     24.57000000    85.72000000    42.21000000
   H     24.93000000    84.51000000    43.44000000
   H     23.08000000    85.61000000    44.08000000
   H     22.13000000    85.39000000    42.75000000
   H     22.61000000    84.10000000    43.67000000
   N     28.38000000    81.13000000    39.69000000
   C     29.60000000    80.87000000    40.44000000
   C     30.84000000    80.97000000    39.57000000
   O     31.97000000    81.11000000    40.02000000
   C     29.41000000    79.59000000    41.25000000
   C     28.13000000    79.40000000    42.05000000
   C     28.18000000    78.09000000    42.82000000
   O     27.63000000    77.14000000    42.23000000
   O     28.92000000    77.85000000    43.80000000
   H     27.80000000    80.31000000    39.57000000
   H     29.73000000    81.58000000    41.25000000
   H     30.20000000    79.57000000    42.01000000
   H     29.58000000    78.76000000    40.56000000
   H     27.29000000    79.32000000    41.35000000
   H     27.92000000    80.28000000    42.66000000
   N     30.58000000    80.90000000    38.26000000
   C     31.54000000    81.09000000    37.19000000
   H     32.48300000    80.61400000    37.46000000
   H     31.15600000    80.64200000    36.27300000
   H     31.70400000    82.15600000    37.03300000
   H     29.65000000    80.57000000    38.05000000
  Ca     27.48000000    75.63000000    44.36000000
   O     25.26000000    77.22000000    44.11000000
   H     24.58000000    77.47000000    43.49000000
   H     25.34000000    77.97000000    44.69000000
   O     25.43000000    74.44000000    42.77000000
   H     24.95000000    75.26000000    42.75000000
   H     24.90000000    73.83000000    42.26000000

Ca 1.00



