%chk=loop3.apoCaM-CA-Ng.Init31.run54.water5.chk
%nprocshared=20
%mem=10GB
%nosave
#b3lyp/svp scf=(tight,noincore,xqc) Test 
#IOP(5/87=12) Density=Current Pop=(MK,readradii) iop(6/33=2) iop(6/42=6)

loop3.apoCaM-CA-Ng.Init31.run54.water5 

   0  1 
   C     91.85000000    49.01000000    28.54000000
   C     93.21000000    49.67000000    28.41000000
   O     93.66000000    50.15000000    27.38000000
   H     91.12500000    49.55000000    27.93100000
   H     91.91300000    47.97700000    28.19900000
   H     91.53400000    49.03000000    29.58300000
   N     93.91000000    49.68000000    29.55000000
   C     95.21000000    50.26000000    29.79000000
   C     96.29000000    49.25000000    30.15000000
   O     95.98000000    48.11000000    30.50000000
   C     95.15000000    51.40000000    30.81000000
   C     94.48000000    51.08000000    32.14000000
   O     95.03000000    51.35000000    33.24000000
   O     93.32000000    50.62000000    32.10000000
   H     93.59000000    49.05000000    30.28000000
   H     95.58000000    50.73000000    28.87000000
   H     94.71000000    52.30000000    30.38000000
   H     96.18000000    51.55000000    31.10000000
   N     97.54000000    49.70000000    30.07000000
   C     98.67000000    48.85000000    30.39000000
   C     99.04000000    47.81000000    29.35000000
   O     99.81000000    46.89000000    29.61000000
   C     99.86000000    49.70000000    30.80000000
   C     99.58000000    50.43000000    32.11000000
   C    100.75000000    51.19000000    32.72000000
   C    100.34000000    51.99000000    33.96000000
   N    101.43000000    52.64000000    34.70000000
   H     97.71000000    50.61000000    29.67000000
   H     98.38000000    48.25000000    31.25000000
   H    100.08000000    50.47000000    30.06000000
   H    100.72000000    49.03000000    30.86000000
   H     99.13000000    49.84000000    32.90000000
   H     98.94000000    51.23000000    31.73000000
   H    101.27000000    51.89000000    32.07000000
   H    101.48000000    50.48000000    33.12000000
   H     99.78000000    51.31000000    34.60000000
   H     99.65000000    52.75000000    33.61000000
   H    101.94000000    53.29000000    34.12000000
   H    101.02000000    53.21000000    35.43000000
   H    102.06000000    52.02000000    35.19000000
   N     98.49000000    47.90000000    28.13000000
   C     98.60000000    46.99000000    27.01000000
   C     99.19000000    47.64000000    25.76000000
   O     99.46000000    46.95000000    24.78000000
   C     97.24000000    46.34000000    26.82000000
   C     96.11000000    47.34000000    26.60000000
   O     94.96000000    46.85000000    26.55000000
   O     96.37000000    48.55000000    26.47000000
   H     97.82000000    48.65000000    28.09000000
   H     99.30000000    46.20000000    27.27000000
   H     97.03000000    45.84000000    27.77000000
   H     97.25000000    45.63000000    26.00000000
   N     99.37000000    48.96000000    25.85000000
   C     99.96000000    49.86000000    24.88000000
   C     98.86000000    50.73000000    24.28000000
   O     97.80000000    50.92000000    24.87000000
   H     99.04000000    49.31000000    26.74000000
   H    100.36000000    49.25000000    24.07000000
   H    100.69000000    50.55000000    25.30000000
   N     98.99000000    51.38000000    23.13000000
   C    100.15000000    51.64000000    22.30000000
   C     99.73000000    51.59000000    20.84000000
   O     98.63000000    51.98000000    20.44000000
   C    100.89000000    52.90000000    22.75000000
   C    100.19000000    54.16000000    22.28000000
   N    100.61000000    54.80000000    21.18000000
   O     99.22000000    54.58000000    22.90000000
   H     98.20000000    51.91000000    22.76000000
   H    100.78000000    50.78000000    22.48000000
   H    101.84000000    52.87000000    22.22000000
   H    101.09000000    52.77000000    23.81000000
   H    101.28000000    54.32000000    20.59000000
   H    100.25000000    55.71000000    20.97000000
   N    100.58000000    51.05000000    19.97000000
   C    101.82000000    50.33000000    20.19000000
   C    101.57000000    48.84000000    20.35000000
   O    100.85000000    48.47000000    21.27000000
   H    100.22000000    50.89000000    19.04000000
   H    102.35000000    50.80000000    21.02000000
   H    102.58000000    50.56000000    19.43000000
   N    101.97000000    48.01000000    19.38000000
   C    101.44000000    46.66000000    19.28000000
   C    102.56000000    45.64000000    19.17000000
   O    103.62000000    45.88000000    18.60000000
   C    100.60000000    46.67000000    18.00000000
   C     99.50000000    47.70000000    17.95000000
   C     98.47000000    47.71000000    18.90000000
   C     99.50000000    48.64000000    16.91000000
   C     97.46000000    48.68000000    18.85000000
   C     98.53000000    49.64000000    16.81000000
   C     97.55000000    49.65000000    17.83000000
   O     96.52000000    50.54000000    17.76000000
   H    102.84000000    48.27000000    18.94000000
   H    100.78000000    46.38000000    20.10000000
   H    100.21000000    45.67000000    17.81000000
   H    101.27000000    46.92000000    17.18000000
   H     98.44000000    46.93000000    19.65000000
   H    100.34000000    48.57000000    16.24000000
   H     96.66000000    48.73000000    19.57000000
   H     98.74000000    50.41000000    16.08000000
   H     96.68000000    51.23000000    17.11000000
   N    102.31000000    44.37000000    19.49000000
   C    103.13000000    43.22000000    19.14000000
   C    102.35000000    41.98000000    18.71000000
   O    103.03000000    40.97000000    18.55000000
   C    104.08000000    42.93000000    20.29000000
   C    104.98000000    44.11000000    20.65000000
   C    103.42000000    42.31000000    21.53000000
   C    106.12000000    43.85000000    21.63000000
   H    101.36000000    44.18000000    19.79000000
   H    103.72000000    43.37000000    18.24000000
   H    104.76000000    42.21000000    19.84000000
   H    104.39000000    44.95000000    21.00000000
   H    105.61000000    44.40000000    19.81000000
   H    102.86000000    43.02000000    22.13000000
   H    102.90000000    41.41000000    21.21000000
   H    104.19000000    42.01000000    22.25000000
   H    106.69000000    44.74000000    21.90000000
   H    105.64000000    43.54000000    22.56000000
   H    106.84000000    43.10000000    21.31000000
   N    101.02000000    41.98000000    18.74000000
   C    100.25000000    40.86000000    18.24000000
   C     99.88000000    39.80000000    19.27000000
   O     99.75000000    38.63000000    18.91000000
   C     99.03000000    41.34000000    17.46000000
   O     98.18000000    42.14000000    18.26000000
   H    100.53000000    42.80000000    19.08000000
   H    100.86000000    40.25000000    17.58000000
   H     98.39000000    40.55000000    17.07000000
   H     99.33000000    41.82000000    16.53000000
   H     98.52000000    42.95000000    18.64000000
   N     99.69000000    40.18000000    20.53000000
   C     99.54000000    39.35000000    21.71000000
   C     98.44000000    39.94000000    22.57000000
   O     98.58000000    40.20000000    23.76000000
   C    100.90000000    39.32000000    22.40000000
   H     99.88000000    41.16000000    20.72000000
   H     99.24000000    38.32000000    21.51000000
   H    100.77000000    38.59000000    23.20000000
   H    101.72000000    39.00000000    21.76000000
   H    101.21000000    40.29000000    22.80000000
   N     97.24000000    39.94000000    21.98000000
   C     95.93000000    40.25000000    22.52000000
   C     95.78000000    41.63000000    23.15000000
   O     95.00000000    41.87000000    24.06000000
   C     95.40000000    39.05000000    23.29000000
   H     97.26000000    39.61000000    21.02000000
   H     95.37000000    40.23000000    21.58000000
   H     94.49000000    39.25000000    23.87000000
   H     95.32000000    38.13000000    22.71000000
   H     96.17000000    38.81000000    24.02000000
   N     96.52000000    42.66000000    22.74000000
   C     96.29000000    44.05000000    23.10000000
   C     95.08000000    44.66000000    22.41000000
   O     94.59000000    45.69000000    22.88000000
   C     97.58000000    44.83000000    22.88000000
   C     98.12000000    45.06000000    21.47000000
   C     98.98000000    43.92000000    20.93000000
   O     99.57000000    44.10000000    19.84000000
   O     99.16000000    42.87000000    21.57000000
   H     97.30000000    42.45000000    22.14000000
   H     96.12000000    44.10000000    24.18000000
   H     98.39000000    44.42000000    23.48000000
   H     97.38000000    45.71000000    23.50000000
   H     98.73000000    45.93000000    21.71000000
   H     97.27000000    45.39000000    20.89000000
   N     94.67000000    44.06000000    21.29000000
   C     93.53000000    44.49000000    20.50000000
   H     92.72600000    44.80500000    21.16500000
   H     93.82200000    45.32500000    19.86400000
   H     93.18500000    43.66300000    19.87900000
   H     95.19000000    43.23000000    21.06000000
  Ca     95.31000000    50.60000000    25.28000000
   O     96.02000000    52.46000000    27.02000000
   H     96.28000000    53.34000000    26.74000000
   H     96.27000000    52.42000000    27.94000000
   O     96.15000000    53.11000000    24.17000000
   H     97.09000000    53.23000000    24.03000000
   H     95.74000000    53.85000000    23.73000000
   O     93.88000000    48.26000000    24.62000000
   H     94.01000000    47.58000000    25.28000000
   H     93.92000000    47.79000000    23.79000000
   O     93.24000000    51.68000000    24.17000000
   H     93.24000000    51.88000000    23.23000000
   H     92.43000000    52.07000000    24.50000000
   O     95.85000000    49.97000000    22.80000000
   H     96.53000000    49.37000000    22.51000000
   H     95.61000000    50.47000000    22.02000000

Ca 1.00



