%chk=loop4.holoCaM.run85.water2.chk
%nprocshared=20
%mem=10GB
%nosave
#b3lyp/svp scf=(tight,noincore,xqc) Test 
#IOP(5/87=12) Density=Current Pop=(MK,readradii) iop(6/33=2) iop(6/42=6)

loop4.holoCaM.run85.water2 

   -3  1 
   C     48.43000000    58.87000000    23.40000000
   C     49.81000000    59.31000000    23.88000000
   O     50.07000000    60.47000000    24.20000000
   H     47.74300000    59.71500000    23.44900000
   H     48.49800000    58.51600000    22.37100000
   H     48.06200000    58.06600000    24.03700000
   N     50.80000000    58.42000000    23.88000000
   C     52.18000000    58.57000000    24.32000000
   C     53.02000000    59.17000000    23.20000000
   O     52.97000000    58.64000000    22.09000000
   C     52.73000000    57.31000000    24.98000000
   C     54.08000000    57.43000000    25.66000000
   O     54.80000000    56.41000000    25.70000000
   O     54.39000000    58.60000000    25.98000000
   H     50.53000000    57.54000000    23.47000000
   H     52.10000000    59.35000000    25.08000000
   H     52.76000000    56.52000000    24.23000000
   H     51.93000000    57.23000000    25.72000000
   N     53.71000000    60.28000000    23.43000000
   C     54.78000000    60.80000000    22.59000000
   C     55.99000000    59.89000000    22.72000000
   O     56.49000000    59.42000000    21.70000000
   C     54.94000000    62.27000000    22.94000000
   C     53.73000000    63.15000000    22.63000000
   C     56.15000000    62.80000000    22.16000000
   C     53.04000000    63.28000000    21.28000000
   H     53.68000000    60.63000000    24.37000000
   H     54.46000000    60.79000000    21.55000000
   H     55.17000000    62.43000000    23.99000000
   H     54.04000000    64.20000000    22.74000000
   H     53.03000000    63.15000000    23.47000000
   H     57.06000000    62.31000000    22.51000000
   H     56.07000000    62.47000000    21.13000000
   H     56.28000000    63.87000000    22.27000000
   H     52.29000000    62.50000000    21.17000000
   H     52.62000000    64.28000000    21.20000000
   H     53.82000000    63.18000000    20.52000000
   N     56.30000000    59.67000000    24.00000000
   C     57.67000000    59.41000000    24.38000000
   C     58.16000000    57.97000000    24.45000000
   O     59.37000000    57.72000000    24.50000000
   C     57.99000000    60.06000000    25.73000000
   C     57.22000000    61.35000000    25.94000000
   O     56.08000000    61.34000000    26.46000000
   O     57.74000000    62.44000000    25.60000000
   H     55.68000000    59.88000000    24.77000000
   H     58.29000000    59.94000000    23.65000000
   H     59.08000000    60.17000000    25.75000000
   H     57.70000000    59.35000000    26.50000000
   N     57.29000000    56.96000000    24.56000000
   C     57.68000000    55.58000000    24.72000000
   C     57.88000000    55.24000000    26.19000000
   O     58.45000000    54.18000000    26.42000000
   H     56.32000000    57.24000000    24.48000000
   H     58.60000000    55.31000000    24.20000000
   H     56.90000000    54.97000000    24.25000000
   N     57.22000000    55.96000000    27.09000000
   C     57.12000000    55.60000000    28.49000000
   C     55.90000000    54.78000000    28.87000000
   O     55.95000000    54.00000000    29.83000000
   C     57.22000000    56.87000000    29.34000000
   C     56.24000000    57.91000000    28.82000000
   O     55.05000000    57.55000000    28.64000000
   O     56.70000000    59.05000000    28.57000000
   H     56.58000000    56.63000000    26.69000000
   H     57.94000000    54.98000000    28.86000000
   H     58.22000000    57.28000000    29.16000000
   H     57.03000000    56.64000000    30.38000000
   N     54.87000000    54.77000000    28.03000000
   C     53.63000000    54.03000000    28.21000000
   C     52.81000000    54.60000000    29.35000000
   O     52.05000000    53.82000000    29.92000000
   H     54.88000000    55.46000000    27.29000000
   H     53.88000000    53.01000000    28.48000000
   H     53.14000000    54.05000000    27.23000000
   N     52.90000000    55.88000000    29.72000000
   C     52.04000000    56.70000000    30.55000000
   C     51.62000000    57.97000000    29.84000000
   O     52.31000000    58.56000000    29.01000000
   C     52.67000000    57.03000000    31.90000000
   C     52.91000000    55.79000000    32.76000000
   C     53.39000000    56.15000000    34.16000000
   N     54.70000000    56.25000000    34.41000000
   O     52.59000000    56.50000000    35.03000000
   H     53.44000000    56.45000000    29.08000000
   H     51.18000000    56.10000000    30.87000000
   H     52.02000000    57.72000000    32.44000000
   H     53.62000000    57.52000000    31.72000000
   H     53.62000000    55.14000000    32.25000000
   H     51.96000000    55.30000000    32.93000000
   H     55.36000000    55.95000000    33.70000000
   H     54.88000000    56.62000000    35.32000000
   N     50.41000000    58.45000000    30.15000000
   C     49.94000000    59.75000000    29.70000000
   C     50.12000000    60.86000000    30.73000000
   O     49.79000000    60.63000000    31.89000000
   C     48.58000000    59.66000000    29.01000000
   C     48.78000000    58.81000000    27.76000000
   C     47.40000000    59.25000000    29.88000000
   H     49.70000000    57.95000000    30.66000000
   H     50.59000000    60.04000000    28.87000000
   H     48.25000000    60.66000000    28.71000000
   H     49.27000000    59.44000000    27.02000000
   H     49.43000000    57.96000000    27.98000000
   H     47.84000000    58.58000000    27.25000000
   H     47.79000000    58.45000000    30.51000000
   H     47.10000000    60.07000000    30.52000000
   H     46.65000000    58.93000000    29.16000000
   N     50.70000000    61.98000000    30.31000000
   C     50.76000000    63.16000000    31.15000000
   C     49.54000000    64.04000000    30.90000000
   O     48.79000000    63.75000000    29.97000000
   C     52.06000000    63.96000000    31.10000000
   C     52.15000000    65.05000000    30.05000000
   N     51.95000000    64.63000000    28.80000000
   O     52.02000000    66.23000000    30.37000000
   H     50.93000000    62.13000000    29.34000000
   H     50.65000000    62.72000000    32.15000000
   H     52.95000000    63.35000000    30.97000000
   H     52.06000000    64.44000000    32.08000000
   H     52.20000000    63.67000000    28.63000000
   H     51.92000000    65.32000000    28.06000000
   N     49.27000000    65.08000000    31.68000000
   C     48.17000000    66.01000000    31.48000000
   C     48.08000000    66.52000000    30.05000000
   O     46.98000000    66.48000000    29.51000000
   C     48.12000000    67.20000000    32.44000000
   C     49.50000000    67.60000000    32.90000000
   C     50.04000000    68.79000000    32.40000000
   C     50.20000000    66.94000000    33.92000000
   C     51.28000000    69.27000000    32.85000000
   C     51.48000000    67.37000000    34.29000000
   C     52.01000000    68.60000000    33.85000000
   O     53.18000000    69.13000000    34.30000000
   H     49.90000000    65.33000000    32.43000000
   H     47.25000000    65.49000000    31.74000000
   H     47.51000000    66.90000000    33.30000000
   H     47.63000000    68.07000000    32.02000000
   H     49.57000000    69.40000000    31.64000000
   H     49.82000000    66.02000000    34.31000000
   H     51.64000000    70.19000000    32.43000000
   H     51.99000000    66.76000000    35.02000000
   H     53.66000000    68.54000000    34.89000000
   N     49.16000000    66.90000000    29.36000000
   C     49.14000000    67.35000000    27.98000000
   C     49.07000000    66.25000000    26.94000000
   O     48.63000000    66.52000000    25.82000000
   C     50.41000000    68.16000000    27.74000000
   C     50.34000000    69.08000000    26.52000000
   C     51.52000000    70.05000000    26.50000000
   O     52.07000000    70.25000000    25.40000000
   O     51.94000000    70.55000000    27.56000000
   H     50.06000000    66.88000000    29.82000000
   H     48.34000000    68.08000000    27.89000000
   H     51.26000000    67.49000000    27.64000000
   H     50.70000000    68.73000000    28.62000000
   H     49.42000000    69.66000000    26.49000000
   H     50.45000000    68.42000000    25.67000000
   N     49.11000000    64.99000000    27.39000000
   C     48.70000000    63.88000000    26.55000000
   C     47.26000000    63.54000000    26.89000000
   O     46.49000000    63.15000000    26.02000000
   C     49.66000000    62.73000000    26.83000000
   C     50.95000000    62.92000000    26.04000000
   C     52.08000000    62.08000000    26.63000000
   O     52.11000000    61.77000000    27.84000000
   O     53.11000000    61.76000000    26.00000000
   H     49.30000000    64.80000000    28.36000000
   H     48.81000000    64.17000000    25.50000000
   H     49.26000000    61.77000000    26.51000000
   H     49.92000000    62.59000000    27.88000000
   H     51.26000000    63.95000000    26.21000000
   H     50.83000000    62.76000000    24.97000000
   N     46.76000000    63.73000000    28.12000000
   C     45.42000000    63.35000000    28.52000000
   H     44.72900000    63.54000000    27.69900000
   H     45.40200000    62.28900000    28.77100000
   H     45.12000000    63.93500000    29.39000000
   H     47.41000000    63.93000000    28.86000000
  Ca     54.36000000    60.07000000    28.01000000
   O     54.92000000    60.33000000    30.51000000
   H     55.13000000    59.71000000    31.21000000
   H     55.40000000    61.12000000    30.73000000
   O     55.13000000    62.64000000    28.78000000
   H     55.83000000    63.11000000    29.22000000
   H     55.03000000    63.09000000    27.94000000

Ca 1.00



