%chk=loop1.apoCaM-CA-Ng.Init295.run1.water6.chk
%nprocshared=20
%mem=10GB
%nosave
#b3lyp/svp scf=(tight,noincore,xqc) Test 
#IOP(5/87=12) Density=Current Pop=(MK,readradii) iop(6/33=2) iop(6/42=6)

loop1.apoCaM-CA-Ng.Init295.run1.water6 

   0  1 
   C     36.83000000    46.55000000     9.57000000
   C     37.40000000    46.30000000     8.18000000
   O     36.97000000    45.42000000     7.44000000
   H     35.80900000    46.17000000     9.61700000
   H     37.44200000    46.03700000    10.31200000
   H     36.82900000    47.62000000     9.77600000
   N     38.35000000    47.14000000     7.77000000
   C     39.19000000    46.99000000     6.60000000
   C     38.35000000    47.00000000     5.33000000
   O     37.26000000    47.56000000     5.29000000
   C     40.16000000    45.84000000     6.82000000
   C     41.52000000    46.10000000     6.18000000
   O     41.67000000    46.03000000     4.94000000
   O     42.47000000    46.39000000     6.94000000
   H     38.58000000    47.91000000     8.38000000
   H     39.83000000    47.87000000     6.46000000
   H     39.78000000    44.91000000     6.40000000
   H     40.25000000    45.70000000     7.90000000
   N     38.98000000    46.57000000     4.23000000
   C     38.52000000    46.59000000     2.85000000
   C     38.12000000    47.94000000     2.26000000
   O     38.26000000    48.19000000     1.07000000
   C     37.34000000    45.62000000     2.77000000
   C     37.04000000    45.05000000     1.39000000
   C     36.00000000    43.94000000     1.49000000
   C     36.64000000    42.61000000     1.89000000
   N     35.65000000    41.52000000     1.98000000
   H     39.96000000    46.40000000     4.41000000
   H     39.34000000    46.12000000     2.31000000
   H     36.46000000    46.18000000     3.06000000
   H     37.57000000    44.77000000     3.41000000
   H     37.92000000    44.80000000     0.79000000
   H     36.62000000    45.87000000     0.82000000
   H     35.46000000    43.80000000     0.55000000
   H     35.27000000    44.20000000     2.25000000
   H     37.21000000    42.79000000     2.80000000
   H     37.29000000    42.42000000     1.04000000
   H     34.90000000    41.75000000     2.62000000
   H     35.20000000    41.25000000     1.11000000
   H     36.12000000    40.70000000     2.31000000
   N     37.63000000    48.91000000     3.03000000
   C     37.04000000    50.17000000     2.63000000
   C     37.71000000    51.23000000     3.49000000
   O     37.07000000    52.23000000     3.83000000
   C     35.55000000    50.03000000     2.93000000
   C     34.66000000    51.14000000     2.39000000
   O     33.43000000    51.02000000     2.53000000
   O     35.11000000    52.13000000     1.76000000
   H     37.37000000    48.65000000     3.97000000
   H     37.23000000    50.34000000     1.57000000
   H     35.37000000    49.93000000     4.01000000
   H     35.23000000    49.12000000     2.42000000
   N     38.99000000    51.08000000     3.82000000
   C     39.74000000    51.98000000     4.68000000
   C     39.83000000    53.40000000     4.15000000
   O     40.00000000    53.59000000     2.94000000
   H     39.54000000    50.32000000     3.45000000
   H     40.72000000    51.54000000     4.87000000
   H     39.28000000    51.97000000     5.67000000
   N     39.95000000    54.28000000     5.14000000
   C     40.01000000    55.69000000     4.81000000
   C     41.42000000    56.21000000     4.99000000
   O     41.57000000    57.43000000     5.13000000
   C     38.90000000    56.49000000     5.48000000
   C     37.56000000    55.81000000     5.74000000
   O     37.08000000    55.74000000     6.89000000
   O     37.07000000    55.17000000     4.79000000
   H     39.73000000    54.06000000     6.10000000
   H     39.76000000    55.81000000     3.75000000
   H     38.69000000    57.42000000     4.95000000
   H     39.25000000    56.82000000     6.46000000
   N     42.46000000    55.37000000     4.98000000
   C     43.70000000    55.64000000     5.66000000
   C     43.52000000    55.44000000     7.16000000
   O     44.26000000    56.06000000     7.93000000
   H     42.20000000    54.43000000     4.71000000
   H     43.95000000    56.68000000     5.48000000
   H     44.40000000    54.91000000     5.26000000
   N     42.47000000    54.74000000     7.57000000
   C     41.92000000    54.62000000     8.91000000
   C     41.30000000    55.95000000     9.33000000
   O     40.71000000    56.65000000     8.51000000
   C     41.06000000    53.37000000     8.99000000
   C     40.15000000    53.26000000    10.21000000
   O     40.11000000    53.31000000     7.95000000
   H     41.96000000    54.23000000     6.85000000
   H     42.82000000    54.56000000     9.51000000
   H     41.65000000    52.46000000     8.83000000
   H     39.49000000    52.62000000     8.18000000
   H     39.48000000    52.40000000    10.14000000
   H     40.79000000    53.18000000    11.08000000
   H     39.55000000    54.16000000    10.31000000
   N     41.52000000    56.34000000    10.58000000
   C     41.14000000    57.65000000    11.07000000
   C     42.16000000    58.75000000    10.83000000
   O     41.77000000    59.88000000    10.51000000
   C     40.70000000    57.62000000    12.53000000
   C     41.88000000    57.24000000    13.42000000
   C     39.39000000    56.82000000    12.59000000
   C     42.30000000    55.77000000    13.45000000
   H     42.18000000    55.79000000    11.11000000
   H     40.23000000    57.95000000    10.56000000
   H     40.40000000    58.65000000    12.73000000
   H     41.66000000    57.37000000    14.48000000
   H     42.78000000    57.83000000    13.25000000
   H     38.55000000    57.40000000    12.22000000
   H     39.49000000    55.83000000    12.15000000
   H     39.15000000    56.65000000    13.64000000
   H     42.93000000    55.68000000    12.56000000
   H     43.01000000    55.52000000    14.24000000
   H     41.53000000    55.01000000    13.55000000
   N     43.45000000    58.43000000    10.70000000
   C     44.54000000    59.32000000    10.40000000
   C     45.62000000    59.10000000    11.45000000
   O     46.23000000    58.03000000    11.50000000
   C     45.21000000    59.22000000     9.03000000
   C     44.12000000    59.58000000     8.03000000
   O     46.30000000    60.09000000     8.80000000
   H     43.71000000    57.47000000    10.91000000
   H     44.10000000    60.30000000    10.59000000
   H     45.48000000    58.18000000     8.83000000
   H     47.01000000    59.73000000     9.33000000
   H     44.49000000    59.52000000     7.01000000
   H     43.32000000    58.85000000     8.16000000
   H     43.65000000    60.51000000     8.36000000
   N     46.00000000    60.19000000    12.11000000
   C     47.14000000    60.31000000    13.00000000
   C     46.89000000    59.99000000    14.47000000
   O     47.85000000    59.69000000    15.18000000
   C     47.62000000    61.75000000    12.83000000
   C     49.04000000    61.87000000    13.36000000
   O     46.75000000    62.64000000    13.51000000
   H     45.50000000    61.06000000    11.97000000
   H     47.95000000    59.67000000    12.66000000
   H     47.68000000    61.90000000    11.75000000
   H     46.00000000    62.70000000    12.92000000
   H     49.13000000    62.01000000    14.44000000
   H     49.64000000    60.98000000    13.16000000
   H     49.45000000    62.71000000    12.80000000
   N     45.64000000    60.13000000    14.92000000
   C     45.23000000    59.78000000    16.26000000
   C     43.82000000    59.21000000    16.36000000
   O     43.05000000    59.36000000    15.41000000
   C     45.42000000    60.95000000    17.22000000
   C     44.36000000    62.02000000    16.96000000
   C     44.53000000    63.11000000    18.01000000
   C     43.43000000    64.14000000    17.77000000
   N     43.76000000    65.45000000    18.34000000
   H     45.01000000    60.48000000    14.21000000
   H     45.84000000    58.98000000    16.68000000
   H     46.45000000    61.28000000    17.17000000
   H     45.34000000    60.60000000    18.25000000
   H     43.34000000    61.64000000    16.96000000
   H     44.53000000    62.37000000    15.94000000
   H     45.53000000    63.53000000    17.87000000
   H     44.46000000    62.73000000    19.03000000
   H     42.50000000    63.75000000    18.18000000
   H     43.33000000    64.18000000    16.69000000
   H     44.77000000    65.46000000    18.28000000
   H     43.29000000    66.14000000    17.77000000
   H     43.49000000    65.54000000    19.31000000
   N     43.46000000    58.58000000    17.48000000
   C     42.09000000    58.16000000    17.70000000
   C     41.93000000    56.66000000    17.48000000
   O     40.94000000    56.30000000    16.84000000
   C     41.55000000    58.70000000    19.02000000
   C     41.71000000    60.21000000    19.16000000
   C     41.47000000    60.58000000    20.62000000
   O     42.41000000    61.05000000    21.29000000
   O     40.34000000    60.35000000    21.11000000
   H     44.09000000    58.57000000    18.26000000
   H     41.40000000    58.63000000    17.00000000
   H     42.13000000    58.21000000    19.80000000
   H     40.53000000    58.32000000    19.16000000
   H     40.92000000    60.59000000    18.51000000
   H     42.67000000    60.50000000    18.76000000
   N     42.80000000    55.73000000    17.88000000
   C     43.35000000    55.71000000    19.22000000
   H     44.23600000    56.34300000    19.25800000
   H     42.60700000    56.08400000    19.92400000
   H     43.62200000    54.68900000    19.48700000
   H     42.56000000    54.80000000    17.60000000
  Ca     35.92000000    54.43000000     2.60000000
   O     38.14000000    53.32000000     1.23000000
   H     38.94000000    53.43000000     1.75000000
   H     38.46000000    53.04000000     0.37000000
   O     33.93000000    53.62000000     4.35000000
   H     33.10000000    54.05000000     4.14000000
   H     33.67000000    52.81000000     4.79000000
   O     33.47000000    55.17000000     1.39000000
   H     33.22000000    55.78000000     0.70000000
   H     33.08000000    54.33000000     1.12000000
   O     35.83000000    54.79000000    -0.07700000
   H     35.47000000    55.36000000    -0.76700000
   H     36.45000000    54.23000000    -0.53700000
   O     34.96000000    56.68000000     3.29000000
   H     35.35000000    57.46000000     3.67000000
   H     34.32000000    57.01000000     2.66000000
   O     37.40000000    56.55000000     1.51000000
   H     38.33000000    56.80000000     1.48000000
   H     37.02000000    56.96000000     0.73000000

Ca 1.00



