%chk=loop2.apoCaM-CA-Ng.Init295.run33.water5.chk
%nprocshared=20
%mem=10GB
%nosave
#b3lyp/svp scf=(tight,noincore,xqc) Test 
#IOP(5/87=12) Density=Current Pop=(MK,readradii) iop(6/33=2) iop(6/42=6)

loop2.apoCaM-CA-Ng.Init295.run33.water5 

   -2  1 
   C     85.35000000    73.92000000    62.16000000
   C     86.57000000    73.88000000    61.25000000
   O     86.94000000    74.94000000    60.73000000
   H     84.49800000    73.47900000    61.64300000
   H     85.55500000    73.35500000    63.06900000
   H     85.12200000    74.95400000    62.41800000
   N     87.19000000    72.72000000    61.00000000
   C     88.46000000    72.77000000    60.31000000
   C     89.60000000    73.35000000    61.13000000
   O     89.85000000    73.08000000    62.31000000
   C     88.79000000    71.41000000    59.70000000
   C     87.72000000    70.86000000    58.77000000
   O     87.12000000    71.67000000    58.04000000
   O     87.45000000    69.64000000    58.82000000
   H     86.85000000    71.84000000    61.35000000
   H     88.37000000    73.52000000    59.53000000
   H     89.03000000    70.72000000    60.52000000
   H     89.69000000    71.49000000    59.09000000
   N     90.30000000    74.25000000    60.43000000
   C     91.46000000    74.98000000    60.90000000
   C     91.22000000    76.43000000    61.29000000
   O     90.13000000    76.91000000    61.00000000
   C     92.44000000    74.84000000    59.74000000
   H     90.07000000    74.46000000    59.47000000
   H     91.82000000    74.50000000    61.81000000
   H     92.53000000    73.77000000    59.56000000
   H     92.09000000    75.28000000    58.81000000
   H     93.48000000    75.12000000    59.95000000
   N     92.06000000    77.12000000    62.06000000
   C     93.42000000    76.70000000    62.36000000
   C     93.55000000    75.51000000    63.30000000
   O     92.67000000    75.22000000    64.10000000
   C     94.23000000    77.88000000    62.89000000
   C     94.24000000    79.17000000    62.08000000
   O     94.92000000    79.17000000    61.03000000
   O     93.62000000    80.12000000    62.59000000
   H     91.70000000    78.00000000    62.40000000
   H     93.88000000    76.41000000    61.41000000
   H     95.23000000    77.58000000    63.20000000
   H     93.88000000    78.07000000    63.91000000
   N     94.68000000    74.79000000    63.30000000
   C     94.87000000    73.59000000    64.08000000
   C     93.90000000    72.45000000    63.80000000
   O     93.33000000    72.38000000    62.71000000
   H     95.32000000    75.07000000    62.57000000
   H     94.65000000    73.84000000    65.12000000
   H     95.91000000    73.24000000    64.05000000
   N     93.70000000    71.61000000    64.82000000
   C     94.34000000    71.34000000    66.09000000
   C     93.41000000    71.55000000    67.28000000
   O     93.91000000    71.48000000    68.40000000
   C     94.72000000    69.86000000    66.07000000
   C     95.75000000    69.53000000    65.00000000
   N     97.01000000    69.96000000    65.07000000
   O     95.41000000    68.77000000    64.10000000
   H     92.89000000    71.03000000    64.68000000
   H     95.23000000    71.96000000    66.22000000
   H     93.83000000    69.23000000    65.98000000
   H     95.25000000    69.60000000    66.99000000
   H     97.26000000    70.60000000    65.81000000
   H     97.66000000    69.58000000    64.40000000
   N     92.19000000    72.07000000    67.12000000
   C     91.43000000    72.80000000    68.12000000
   C     91.88000000    74.23000000    68.37000000
   O     91.62000000    74.76000000    69.45000000
   H     91.82000000    72.12000000    66.19000000
   H     91.31000000    72.24000000    69.04000000
   H     90.42000000    72.95000000    67.75000000
   N     92.58000000    74.84000000    67.42000000
   C     93.16000000    76.17000000    67.51000000
   C     92.13000000    77.18000000    67.01000000
   O     92.50000000    77.99000000    66.17000000
   C     94.52000000    76.17000000    66.82000000
   C     95.40000000    77.36000000    67.19000000
   O     95.29000000    75.03000000    67.12000000
   H     92.84000000    74.30000000    66.60000000
   H     93.37000000    76.35000000    68.56000000
   H     94.40000000    76.28000000    65.74000000
   H     96.14000000    75.03000000    66.67000000
   H     94.78000000    78.25000000    67.10000000
   H     95.68000000    77.33000000    68.24000000
   H     96.23000000    77.33000000    66.48000000
   N     90.90000000    77.14000000    67.53000000
   C     89.75000000    77.92000000    67.16000000
   C     89.32000000    78.87000000    68.28000000
   O     89.75000000    78.81000000    69.43000000
   C     88.60000000    76.96000000    66.87000000
   C     88.79000000    75.99000000    65.70000000
   C     88.28000000    76.09000000    68.09000000
   C     88.79000000    76.67000000    64.34000000
   H     90.81000000    76.62000000    68.39000000
   H     89.93000000    78.56000000    66.29000000
   H     87.72000000    77.54000000    66.60000000
   H     87.91000000    75.35000000    65.65000000
   H     89.64000000    75.32000000    65.83000000
   H     89.02000000    75.37000000    68.44000000
   H     88.02000000    76.73000000    68.93000000
   H     87.40000000    75.50000000    67.83000000
   H     88.63000000    75.90000000    63.58000000
   H     87.95000000    77.36000000    64.40000000
   H     89.76000000    77.12000000    64.10000000
   N     88.44000000    79.83000000    68.00000000
   C     88.22000000    80.98000000    68.84000000
   C     86.78000000    81.45000000    68.63000000
   O     86.16000000    81.27000000    67.59000000
   C     89.28000000    82.03000000    68.51000000
   C     89.44000000    82.07000000    67.00000000
   O     90.53000000    81.66000000    66.53000000
   O     88.66000000    82.64000000    66.21000000
   H     87.87000000    79.80000000    67.17000000
   H     88.28000000    80.73000000    69.90000000
   H     90.28000000    81.82000000    68.90000000
   H     88.82000000    82.95000000    68.86000000
   N     86.17000000    81.99000000    69.69000000
   C     84.80000000    82.45000000    69.72000000
   C     83.70000000    81.48000000    69.32000000
   O     83.70000000    80.36000000    69.83000000
   C     84.52000000    83.06000000    71.09000000
   C     83.19000000    83.75000000    71.26000000
   C     82.02000000    83.11000000    71.68000000
   C     83.09000000    85.12000000    70.98000000
   C     80.79000000    83.76000000    71.86000000
   C     81.87000000    85.81000000    71.02000000
   C     80.80000000    85.15000000    71.62000000
   H     86.75000000    82.22000000    70.49000000
   H     84.72000000    83.28000000    69.02000000
   H     85.30000000    83.71000000    71.48000000
   H     84.60000000    82.21000000    71.77000000
   H     82.08000000    82.09000000    72.02000000
   H     83.97000000    85.71000000    70.76000000
   H     79.94000000    83.25000000    72.27000000
   H     81.85000000    86.86000000    70.76000000
   H     79.92000000    85.71000000    71.88000000
   N     82.75000000    81.86000000    68.46000000
   C     81.66000000    80.99000000    68.10000000
   C     82.14000000    79.71000000    67.42000000
   O     81.33000000    78.83000000    67.16000000
   C     80.63000000    81.85000000    67.36000000
   C     81.27000000    83.20000000    67.08000000
   C     82.55000000    83.19000000    67.91000000
   H     81.19000000    80.82000000    69.07000000
   H     80.35000000    81.47000000    66.38000000
   H     79.77000000    82.01000000    68.01000000
   H     81.52000000    83.32000000    66.03000000
   H     80.62000000    84.04000000    67.36000000
   H     83.38000000    83.62000000    67.36000000
   H     82.32000000    83.85000000    68.75000000
   N     83.43000000    79.48000000    67.17000000
   C     83.92000000    78.27000000    66.54000000
   C     83.89000000    77.07000000    67.48000000
   O     83.34000000    76.09000000    66.98000000
   C     85.38000000    78.53000000    66.17000000
   C     85.53000000    79.55000000    65.05000000
   C     86.93000000    80.02000000    64.68000000
   O     88.02000000    79.75000000    65.22000000
   O     87.10000000    80.88000000    63.79000000
   H     84.04000000    80.25000000    67.38000000
   H     83.30000000    78.06000000    65.67000000
   H     85.84000000    77.63000000    65.76000000
   H     85.99000000    78.72000000    67.05000000
   H     84.94000000    80.42000000    65.35000000
   H     85.08000000    79.16000000    64.14000000
   N     84.15000000    77.19000000    68.78000000
   C     83.99000000    76.16000000    69.79000000
   H     82.95400000    75.82200000    69.80200000
   H     84.64300000    75.31900000    69.55900000
   H     84.25100000    76.56500000    70.76800000
   H     84.65000000    77.98000000    69.17000000
  Ca     89.64000000    81.42000000    64.10000000
   O     91.37000000    83.59000000    64.22000000
   H     91.14000000    84.48000000    64.50000000
   H     92.22000000    83.69000000    63.79000000
   O     89.14000000    79.65000000    61.98000000
   H     89.58000000    78.81000000    62.04000000
   H     88.23000000    79.43000000    61.79000000
   O     88.82000000    83.90000000    62.96000000
   H     87.95000000    84.29000000    62.86000000
   H     89.42000000    84.65000000    62.93000000
   O     91.27000000    81.36000000    61.96000000
   H     92.14000000    80.96000000    61.96000000
   H     91.38000000    82.18000000    61.47000000
   O     91.63000000    79.84000000    64.36000000
   H     92.36000000    80.16000000    63.83000000
   H     91.99000000    79.08000000    64.82000000

Ca 1.00



