%chk=loop4.apoCaM-CA-Ng.Init295.run56.water4.chk
%nprocshared=20
%mem=10GB
%nosave
#b3lyp/svp scf=(tight,noincore,xqc) Test 
#IOP(5/87=12) Density=Current Pop=(MK,readradii) iop(6/33=2) iop(6/42=6)

loop4.apoCaM-CA-Ng.Init295.run56.water4 

   -3  1 
   C     60.93000000    49.01000000    28.44000000
   C     61.12000000    47.58000000    28.93000000
   O     62.08000000    47.36000000    29.67000000
   H     60.07900000    49.45900000    28.95200000
   H     61.82800000    49.59000000    28.65300000
   H     60.74600000    49.00500000    27.36600000
   N     60.26000000    46.62000000    28.59000000
   C     60.43000000    45.23000000    28.95000000
   C     60.61000000    44.85000000    30.41000000
   O     61.54000000    44.17000000    30.84000000
   C     61.40000000    44.61000000    27.95000000
   C     61.61000000    45.32000000    26.61000000
   O     62.77000000    45.73000000    26.41000000
   O     60.71000000    45.47000000    25.76000000
   H     59.58000000    46.93000000    27.91000000
   H     59.51000000    44.71000000    28.69000000
   H     61.04000000    43.62000000    27.69000000
   H     62.39000000    44.55000000    28.39000000
   N     59.71000000    45.36000000    31.25000000
   C     59.72000000    45.36000000    32.70000000
   C     58.92000000    44.20000000    33.27000000
   O     57.75000000    44.05000000    32.90000000
   C     59.29000000    46.73000000    33.24000000
   C     60.34000000    47.77000000    32.86000000
   C     58.96000000    46.80000000    34.72000000
   C     60.22000000    49.18000000    33.44000000
   H     59.02000000    45.96000000    30.82000000
   H     60.76000000    45.23000000    33.02000000
   H     58.33000000    46.91000000    32.77000000
   H     60.25000000    47.91000000    31.78000000
   H     61.29000000    47.32000000    33.14000000
   H     59.87000000    46.59000000    35.29000000
   H     58.66000000    47.84000000    34.88000000
   H     58.19000000    46.11000000    35.05000000
   H     60.91000000    49.86000000    32.93000000
   H     59.28000000    49.58000000    33.08000000
   H     60.37000000    49.26000000    34.52000000
   N     59.45000000    43.45000000    34.24000000
   C     60.85000000    43.20000000    34.51000000
   C     61.41000000    42.23000000    33.48000000
   O     62.63000000    42.16000000    33.37000000
   C     60.98000000    42.63000000    35.91000000
   C     60.38000000    43.50000000    37.01000000
   O     61.10000000    44.49000000    37.26000000
   O     59.44000000    43.32000000    37.80000000
   H     58.80000000    42.75000000    34.57000000
   H     61.34000000    44.17000000    34.45000000
   H     62.05000000    42.52000000    36.11000000
   H     60.44000000    41.68000000    35.91000000
   N     60.55000000    41.54000000    32.73000000
   C     61.11000000    40.76000000    31.64000000
   C     62.11000000    39.70000000    32.07000000
   O     61.89000000    38.95000000    33.03000000
   H     59.55000000    41.61000000    32.82000000
   H     61.52000000    41.44000000    30.90000000
   H     60.24000000    40.26000000    31.20000000
   N     63.20000000    39.63000000    31.32000000
   C     64.41000000    38.92000000    31.69000000
   C     65.58000000    39.75000000    32.19000000
   O     66.62000000    39.24000000    32.61000000
   C     64.86000000    38.11000000    30.47000000
   C     64.91000000    38.95000000    29.20000000
   O     63.99000000    38.83000000    28.35000000
   O     65.86000000    39.74000000    29.05000000
   H     63.23000000    40.23000000    30.50000000
   H     64.26000000    38.18000000    32.48000000
   H     64.21000000    37.28000000    30.21000000
   H     65.88000000    37.73000000    30.60000000
   N     65.47000000    41.07000000    32.07000000
   C     66.44000000    42.08000000    32.44000000
   C     67.67000000    42.19000000    31.55000000
   O     68.65000000    42.79000000    31.97000000
   H     64.56000000    41.44000000    31.81000000
   H     66.75000000    41.69000000    33.41000000
   H     66.03000000    43.09000000    32.44000000
   N     67.80000000    41.44000000    30.45000000
   C     68.84000000    41.27000000    29.46000000
   C     69.34000000    42.58000000    28.86000000
   O     70.53000000    42.82000000    28.68000000
   C     69.94000000    40.32000000    29.91000000
   C     69.28000000    39.02000000    30.36000000
   C     70.26000000    37.96000000    30.83000000
   N     69.85000000    37.03000000    31.69000000
   O     71.40000000    37.96000000    30.37000000
   H     67.02000000    40.81000000    30.29000000
   H     68.30000000    40.82000000    28.62000000
   H     70.54000000    40.69000000    30.74000000
   H     70.55000000    40.12000000    29.02000000
   H     68.61000000    38.52000000    29.65000000
   H     68.76000000    39.13000000    31.31000000
   H     68.85000000    36.95000000    31.81000000
   H     70.48000000    36.38000000    32.14000000
   N     68.42000000    43.48000000    28.51000000
   C     68.54000000    44.89000000    28.21000000
   C     68.84000000    45.03000000    26.72000000
   O     68.05000000    44.57000000    25.90000000
   C     67.32000000    45.68000000    28.68000000
   C     67.02000000    45.57000000    30.17000000
   C     67.59000000    47.15000000    28.40000000
   H     67.45000000    43.19000000    28.59000000
   H     69.41000000    45.18000000    28.81000000
   H     66.46000000    45.34000000    28.10000000
   H     66.91000000    44.53000000    30.46000000
   H     67.87000000    45.97000000    30.72000000
   H     66.16000000    46.16000000    30.49000000
   H     68.58000000    47.50000000    28.69000000
   H     67.65000000    47.36000000    27.33000000
   H     66.84000000    47.85000000    28.79000000
   N     69.91000000    45.75000000    26.39000000
   C     70.21000000    46.10000000    25.02000000
   C     70.35000000    47.62000000    25.01000000
   O     70.33000000    48.26000000    26.06000000
   C     71.45000000    45.39000000    24.47000000
   C     71.60000000    45.52000000    22.96000000
   N     72.80000000    45.64000000    22.39000000
   O     70.59000000    45.62000000    22.27000000
   H     70.51000000    45.94000000    27.18000000
   H     69.32000000    45.90000000    24.43000000
   H     71.45000000    44.35000000    24.80000000
   H     72.38000000    45.72000000    24.94000000
   H     73.63000000    45.43000000    22.93000000
   H     72.97000000    45.91000000    21.43000000
   N     70.48000000    48.26000000    23.85000000
   C     70.46000000    49.69000000    23.60000000
   C     69.75000000    49.97000000    22.29000000
   O     70.43000000    50.31000000    21.32000000
   C     71.86000000    50.27000000    23.70000000
   C     71.84000000    51.68000000    24.24000000
   C     72.59000000    51.94000000    25.39000000
   C     71.24000000    52.77000000    23.58000000
   C     72.68000000    53.24000000    25.92000000
   C     71.33000000    54.07000000    24.08000000
   C     72.06000000    54.31000000    25.25000000
   O     72.15000000    55.54000000    25.84000000
   H     70.50000000    47.65000000    23.04000000
   H     69.90000000    50.09000000    24.45000000
   H     72.37000000    50.32000000    22.73000000
   H     72.50000000    49.72000000    24.38000000
   H     73.11000000    51.11000000    25.84000000
   H     70.87000000    52.60000000    22.58000000
   H     73.21000000    53.48000000    26.83000000
   H     70.89000000    54.87000000    23.49000000
   H     71.87000000    56.23000000    25.23000000
   N     68.44000000    49.68000000    22.21000000
   C     67.57000000    49.72000000    21.06000000
   C     66.86000000    51.05000000    20.87000000
   O     66.74000000    51.54000000    19.75000000
   C     66.69000000    48.47000000    21.09000000
   C     67.50000000    47.19000000    20.91000000
   C     66.62000000    45.95000000    20.89000000
   O     66.25000000    45.42000000    21.96000000
   O     66.20000000    45.57000000    19.77000000
   H     68.13000000    49.22000000    23.05000000
   H     68.23000000    49.53000000    20.22000000
   H     66.05000000    48.54000000    20.21000000
   H     66.10000000    48.50000000    22.00000000
   H     68.25000000    47.07000000    21.69000000
   H     68.03000000    47.22000000    19.95000000
   N     66.34000000    51.78000000    21.87000000
   C     65.99000000    51.39000000    23.22000000
   C     66.80000000    52.22000000    24.21000000
   O     67.59000000    53.08000000    23.82000000
   C     64.49000000    51.63000000    23.36000000
   C     63.60000000    50.79000000    22.45000000
   C     63.67000000    49.30000000    22.78000000
   O     63.43000000    48.51000000    21.84000000
   O     63.90000000    48.89000000    23.94000000
   H     66.08000000    52.70000000    21.56000000
   H     66.19000000    50.33000000    23.33000000
   H     64.27000000    52.62000000    22.97000000
   H     64.10000000    51.59000000    24.38000000
   H     63.88000000    50.86000000    21.40000000
   H     62.54000000    51.03000000    22.57000000
   N     66.61000000    51.90000000    25.49000000
   C     67.18000000    52.52000000    26.67000000
   H     68.07600000    53.07400000    26.39100000
   H     66.45300000    53.20300000    27.10900000
   H     67.44100000    51.75000000    27.39600000
   H     65.92000000    51.19000000    25.69000000
  Ca     62.30000000    46.72000000    23.87000000
   O     65.05000000    46.16000000    24.13000000
   H     65.37000000    45.69000000    24.90000000
   H     65.42000000    45.69000000    23.39000000
   O     62.73000000    44.07000000    24.00000000
   H     63.53000000    43.83000000    24.47000000
   H     62.86000000    43.73000000    23.12000000
   O     63.24000000    46.03000000    21.23000000
   H     63.35000000    46.98000000    21.14000000
   H     64.13000000    45.68000000    21.16000000
   O     60.34000000    45.31000000    22.40000000
   H     60.36000000    44.69000000    21.67000000
   H     59.40000000    45.46000000    22.56000000

Ca 1.00



