%chk=loop2.apoCaM-CA-Ng.Init295.run16.water2.chk
%nprocshared=20
%mem=10GB
%nosave
#b3lyp/svp scf=(tight,noincore,xqc) Test 
#IOP(5/87=12) Density=Current Pop=(MK,readradii) iop(6/33=2) iop(6/42=6)

loop2.apoCaM-CA-Ng.Init295.run16.water2 

   -2  1 
   C     78.31000000    40.22000000    48.72000000
   C     76.80000000    40.13000000    48.57000000
   O     76.16000000    39.22000000    49.09000000
   H     78.73700000    40.67400000    47.82600000
   H     78.55400000    40.83100000    49.58900000
   H     78.72300000    39.22000000    48.85100000
   N     76.22000000    41.08000000    47.83000000
   C     74.79000000    41.10000000    47.56000000
   C     74.13000000    42.39000000    48.02000000
   O     74.77000000    43.41000000    48.26000000
   C     74.51000000    40.83000000    46.09000000
   C     75.23000000    41.79000000    45.16000000
   O     76.48000000    41.80000000    45.11000000
   O     74.54000000    42.50000000    44.39000000
   H     76.84000000    41.61000000    47.24000000
   H     74.21000000    40.31000000    48.02000000
   H     73.45000000    40.87000000    45.86000000
   H     74.85000000    39.82000000    45.85000000
   N     72.85000000    42.19000000    48.37000000
   C     71.95000000    43.07000000    49.09000000
   C     71.51000000    42.57000000    50.46000000
   O     71.58000000    41.39000000    50.80000000
   C     70.70000000    43.46000000    48.31000000
   H     72.47000000    41.29000000    48.14000000
   H     72.64000000    43.91000000    49.20000000
   H     70.79000000    43.53000000    47.23000000
   H     69.84000000    42.86000000    48.59000000
   H     70.48000000    44.49000000    48.59000000
   N     71.10000000    43.43000000    51.39000000
   C     70.89000000    44.87000000    51.32000000
   C     72.11000000    45.68000000    50.93000000
   O     73.25000000    45.40000000    51.30000000
   C     70.20000000    45.40000000    52.58000000
   C     69.39000000    44.49000000    53.48000000
   O     68.75000000    44.96000000    54.45000000
   O     69.32000000    43.25000000    53.31000000
   H     70.86000000    43.10000000    52.31000000
   H     70.28000000    45.02000000    50.43000000
   H     69.57000000    46.28000000    52.42000000
   H     70.96000000    45.84000000    53.23000000
   N     71.89000000    46.83000000    50.28000000
   C     72.89000000    47.75000000    49.78000000
   C     73.52000000    47.20000000    48.51000000
   O     72.86000000    46.44000000    47.81000000
   H     70.92000000    46.96000000    50.03000000
   H     73.64000000    47.86000000    50.56000000
   H     72.43000000    48.70000000    49.51000000
   N     74.81000000    47.45000000    48.27000000
   C     75.71000000    48.29000000    49.04000000
   C     76.45000000    47.53000000    50.14000000
   O     77.24000000    48.17000000    50.83000000
   C     76.62000000    49.04000000    48.08000000
   C     75.89000000    49.74000000    46.95000000
   N     75.93000000    49.26000000    45.70000000
   O     75.11000000    50.66000000    47.22000000
   H     75.25000000    46.87000000    47.57000000
   H     75.17000000    49.08000000    49.57000000
   H     77.32000000    48.31000000    47.68000000
   H     77.07000000    49.86000000    48.65000000
   H     76.59000000    48.51000000    45.51000000
   H     75.58000000    49.86000000    44.98000000
   N     76.21000000    46.25000000    50.42000000
   C     76.67000000    45.58000000    51.62000000
   C     76.30000000    46.26000000    52.93000000
   O     77.06000000    46.19000000    53.90000000
   H     75.58000000    45.66000000    49.90000000
   H     77.71000000    45.27000000    51.59000000
   H     76.08000000    44.66000000    51.52000000
   N     75.09000000    46.81000000    52.98000000
   C     74.45000000    47.35000000    54.17000000
   C     73.90000000    46.23000000    55.04000000
   O     72.85000000    45.64000000    54.82000000
   C     73.37000000    48.34000000    53.74000000
   C     72.84000000    49.23000000    54.86000000
   O     73.86000000    49.28000000    52.81000000
   H     74.45000000    46.68000000    52.21000000
   H     75.24000000    47.95000000    54.63000000
   H     72.52000000    47.78000000    53.33000000
   H     73.12000000    49.85000000    52.56000000
   H     73.60000000    49.94000000    55.19000000
   H     72.01000000    49.83000000    54.51000000
   H     72.46000000    48.62000000    55.67000000
   N     74.67000000    45.83000000    56.06000000
   C     74.42000000    44.77000000    57.02000000
   C     73.57000000    45.11000000    58.23000000
   O     73.45000000    46.24000000    58.70000000
   C     75.71000000    44.06000000    57.42000000
   C     76.57000000    43.66000000    56.22000000
   C     76.59000000    44.89000000    58.34000000
   C     75.93000000    42.64000000    55.28000000
   H     75.62000000    46.17000000    56.00000000
   H     73.86000000    44.03000000    56.46000000
   H     75.44000000    43.14000000    57.95000000
   H     77.51000000    43.28000000    56.61000000
   H     76.89000000    44.50000000    55.60000000
   H     76.89000000    45.83000000    57.87000000
   H     76.02000000    45.13000000    59.24000000
   H     77.45000000    44.29000000    58.64000000
   H     75.36000000    41.95000000    55.89000000
   H     75.35000000    43.19000000    54.54000000
   H     76.76000000    42.14000000    54.77000000
   N     72.89000000    44.07000000    58.72000000
   C     72.26000000    44.11000000    60.02000000
   C     72.21000000    42.73000000    60.66000000
   O     72.01000000    41.71000000    60.00000000
   C     70.82000000    44.59000000    59.87000000
   C     69.97000000    44.03000000    58.74000000
   O     70.08000000    44.45000000    57.56000000
   O     69.13000000    43.16000000    59.05000000
   H     72.71000000    43.25000000    58.16000000
   H     72.81000000    44.78000000    60.67000000
   H     70.93000000    45.65000000    59.64000000
   H     70.37000000    44.42000000    60.85000000
   N     72.16000000    42.68000000    61.99000000
   C     72.15000000    41.41000000    62.68000000
   C     73.22000000    40.48000000    62.11000000
   O     74.37000000    40.88000000    61.96000000
   C     72.46000000    41.66000000    64.15000000
   C     72.66000000    40.35000000    64.87000000
   C     73.93000000    39.96000000    65.31000000
   C     71.48000000    39.66000000    65.19000000
   C     74.02000000    38.74000000    65.99000000
   C     71.63000000    38.56000000    66.05000000
   C     72.88000000    38.06000000    66.43000000
   H     72.34000000    43.52000000    62.53000000
   H     71.18000000    40.93000000    62.58000000
   H     71.58000000    42.19000000    64.53000000
   H     73.39000000    42.22000000    64.28000000
   H     74.81000000    40.54000000    65.06000000
   H     70.48000000    40.02000000    65.03000000
   H     74.97000000    38.32000000    66.28000000
   H     70.71000000    38.03000000    66.27000000
   H     72.93000000    37.12000000    66.97000000
   N     72.98000000    39.20000000    61.82000000
   C     73.94000000    38.22000000    61.38000000
   C     74.54000000    38.48000000    60.01000000
   O     75.50000000    37.77000000    59.73000000
   C     73.27000000    36.86000000    61.55000000
   C     71.81000000    37.22000000    61.28000000
   C     71.68000000    38.58000000    61.97000000
   H     74.89000000    38.15000000    61.92000000
   H     73.69000000    36.20000000    60.80000000
   H     73.41000000    36.66000000    62.61000000
   H     71.61000000    37.38000000    60.22000000
   H     71.13000000    36.56000000    61.82000000
   H     70.81000000    39.11000000    61.58000000
   H     71.49000000    38.41000000    63.03000000
   N     74.00000000    39.37000000    59.17000000
   C     74.16000000    39.32000000    57.73000000
   C     75.60000000    39.50000000    57.27000000
   O     75.89000000    39.27000000    56.10000000
   C     73.14000000    40.22000000    57.04000000
   C     71.71000000    39.77000000    57.31000000
   C     70.62000000    40.66000000    56.73000000
   O     69.46000000    40.67000000    57.19000000
   O     70.86000000    41.51000000    55.84000000
   H     73.29000000    39.97000000    59.55000000
   H     73.98000000    38.34000000    57.29000000
   H     73.21000000    40.19000000    55.95000000
   H     73.28000000    41.26000000    57.34000000
   H     71.54000000    39.69000000    58.38000000
   H     71.67000000    38.74000000    56.96000000
   N     76.54000000    39.97000000    58.10000000
   C     77.95000000    40.08000000    57.78000000
   H     78.53200000    39.50800000    58.50300000
   H     78.12800000    39.68700000    56.77900000
   H     78.25100000    41.12700000    57.81900000
   H     76.27000000    40.20000000    59.05000000
  Ca     68.63000000    42.94000000    56.18000000
   O     67.30000000    41.53000000    54.43000000
   H     67.27000000    41.67000000    53.48000000
   H     66.59000000    40.90000000    54.60000000
   O     66.41000000    41.82000000    57.54000000
   H     65.88000000    41.05000000    57.31000000
   H     66.72000000    41.65000000    58.42000000

Ca 1.00



