%chk=loop2.holoCaM.run42.water1.chk
%nprocshared=20
%mem=10GB
%nosave
#b3lyp/svp scf=(tight,noincore,xqc) Test 
#IOP(5/87=12) Density=Current Pop=(MK,readradii) iop(6/33=2) iop(6/42=6)

loop2.holoCaM.run42.water1 

   -2  1 
   C     66.63000000    83.11000000    21.66000000
   C     66.95000000    84.08000000    22.79000000
   O     68.08000000    84.20000000    23.25000000
   H     65.78500000    83.48900000    21.08500000
   H     67.49800000    83.01200000    21.00800000
   H     66.37700000    82.13600000    22.07800000
   N     65.97000000    84.86000000    23.24000000
   C     66.08000000    85.84000000    24.31000000
   C     66.61000000    85.20000000    25.58000000
   O     66.11000000    84.19000000    26.09000000
   C     64.81000000    86.67000000    24.40000000
   C     64.69000000    87.69000000    25.52000000
   O     65.77000000    88.13000000    25.97000000
   O     63.57000000    88.04000000    25.96000000
   H     65.11000000    84.94000000    22.71000000
   H     66.78000000    86.58000000    23.91000000
   H     63.93000000    86.05000000    24.59000000
   H     64.69000000    87.15000000    23.43000000
   N     67.71000000    85.75000000    26.09000000
   C     68.62000000    85.10000000    27.01000000
   C     68.55000000    85.73000000    28.39000000
   O     68.68000000    84.93000000    29.32000000
   C     69.99000000    85.20000000    26.36000000
   H     68.18000000    86.42000000    25.49000000
   H     68.36000000    84.05000000    27.15000000
   H     70.21000000    86.24000000    26.13000000
   H     70.71000000    84.80000000    27.07000000
   H     69.88000000    84.68000000    25.40000000
   N     68.24000000    87.02000000    28.58000000
   C     67.78000000    87.62000000    29.82000000
   C     66.27000000    87.56000000    30.01000000
   O     65.79000000    87.92000000    31.09000000
   C     68.30000000    89.04000000    30.01000000
   C     68.27000000    90.09000000    28.90000000
   O     68.68000000    91.22000000    29.22000000
   O     67.87000000    89.85000000    27.74000000
   H     68.23000000    87.74000000    27.87000000
   H     68.23000000    87.10000000    30.66000000
   H     69.34000000    89.01000000    30.33000000
   H     67.70000000    89.48000000    30.81000000
   N     65.55000000    87.22000000    28.94000000
   C     64.10000000    87.14000000    28.96000000
   C     63.34000000    88.45000000    29.08000000
   O     62.30000000    88.40000000    29.73000000
   H     66.09000000    87.16000000    28.09000000
   H     63.83000000    86.40000000    29.71000000
   H     63.79000000    86.72000000    28.01000000
   N     63.91000000    89.52000000    28.53000000
   C     63.39000000    90.86000000    28.72000000
   C     62.29000000    91.13000000    27.70000000
   O     61.49000000    92.03000000    27.94000000
   C     64.48000000    91.92000000    28.73000000
   C     64.99000000    92.21000000    27.33000000
   N     64.57000000    93.32000000    26.71000000
   O     65.37000000    91.26000000    26.65000000
   H     64.86000000    89.44000000    28.21000000
   H     62.80000000    90.88000000    29.63000000
   H     65.29000000    91.75000000    29.44000000
   H     64.03000000    92.85000000    29.09000000
   H     64.28000000    94.13000000    27.23000000
   H     65.01000000    93.45000000    25.81000000
   N     62.08000000    90.23000000    26.73000000
   C     61.11000000    90.21000000    25.66000000
   C     61.47000000    91.13000000    24.51000000
   O     60.54000000    91.42000000    23.75000000
   H     62.58000000    89.37000000    26.92000000
   H     60.11000000    90.51000000    25.99000000
   H     60.98000000    89.26000000    25.15000000
   N     62.71000000    91.55000000    24.27000000
   C     63.25000000    91.88000000    22.97000000
   C     64.47000000    91.02000000    22.68000000
   O     65.12000000    90.41000000    23.52000000
   C     63.64000000    93.34000000    22.78000000
   C     62.41000000    94.25000000    22.71000000
   O     64.44000000    93.82000000    23.84000000
   H     63.43000000    91.45000000    24.97000000
   H     62.48000000    91.71000000    22.21000000
   H     64.34000000    93.44000000    21.95000000
   H     64.62000000    94.76000000    23.74000000
   H     61.86000000    94.17000000    23.65000000
   H     62.58000000    95.32000000    22.62000000
   H     61.75000000    93.91000000    21.91000000
   N     64.84000000    91.20000000    21.41000000
   C     65.99000000    90.57000000    20.79000000
   C     67.11000000    91.60000000    20.90000000
   O     66.96000000    92.74000000    20.46000000
   C     65.67000000    90.18000000    19.35000000
   C     65.01000000    88.81000000    19.30000000
   C     66.88000000    90.16000000    18.43000000
   C     64.30000000    88.46000000    17.99000000
   H     64.30000000    91.85000000    20.85000000
   H     66.24000000    89.74000000    21.45000000
   H     64.96000000    90.91000000    18.94000000
   H     64.21000000    88.88000000    20.04000000
   H     65.72000000    88.01000000    19.48000000
   H     67.43000000    91.10000000    18.35000000
   H     67.66000000    89.43000000    18.67000000
   H     66.60000000    89.84000000    17.43000000
   H     63.99000000    87.41000000    18.01000000
   H     63.52000000    89.17000000    17.74000000
   H     65.09000000    88.40000000    17.24000000
   N     68.22000000    91.19000000    21.52000000
   C     69.50000000    91.85000000    21.40000000
   C     70.25000000    91.29000000    20.20000000
   O     69.93000000    90.20000000    19.73000000
   C     70.41000000    91.61000000    22.60000000
   C     69.77000000    91.92000000    23.95000000
   O     69.52000000    91.03000000    24.79000000
   O     69.44000000    93.11000000    24.15000000
   H     68.23000000    90.22000000    21.80000000
   H     69.43000000    92.90000000    21.13000000
   H     71.31000000    92.20000000    22.43000000
   H     70.60000000    90.54000000    22.53000000
   N     71.30000000    91.93000000    19.67000000
   C     71.99000000    91.49000000    18.48000000
   C     72.41000000    90.03000000    18.32000000
   O     72.21000000    89.46000000    17.25000000
   C     73.08000000    92.51000000    18.16000000
   C     73.88000000    92.38000000    16.88000000
   C     73.20000000    92.55000000    15.68000000
   C     75.25000000    92.11000000    16.99000000
   C     73.97000000    92.38000000    14.52000000
   C     75.99000000    91.91000000    15.81000000
   C     75.31000000    91.98000000    14.59000000
   H     71.52000000    92.86000000    20.01000000
   H     71.26000000    91.61000000    17.68000000
   H     73.67000000    92.72000000    19.05000000
   H     72.52000000    93.43000000    18.00000000
   H     72.16000000    92.86000000    15.63000000
   H     75.57000000    91.93000000    18.01000000
   H     73.51000000    92.58000000    13.56000000
   H     77.03000000    91.65000000    15.81000000
   H     75.85000000    91.91000000    13.66000000
   N     72.96000000    89.34000000    19.32000000
   C     73.51000000    88.01000000    19.29000000
   C     72.36000000    87.02000000    19.34000000
   O     72.50000000    85.85000000    18.97000000
   C     74.43000000    87.77000000    20.48000000
   C     74.79000000    89.21000000    20.81000000
   C     73.50000000    89.97000000    20.51000000
   H     74.14000000    87.86000000    18.41000000
   H     73.96000000    87.21000000    21.30000000
   H     75.26000000    87.13000000    20.17000000
   H     75.08000000    89.19000000    21.86000000
   H     75.60000000    89.41000000    20.10000000
   H     72.75000000    89.78000000    21.28000000
   H     73.75000000    91.02000000    20.37000000
   N     71.17000000    87.45000000    19.77000000
   C     69.89000000    86.77000000    19.77000000
   C     69.46000000    86.83000000    18.31000000
   O     68.97000000    85.83000000    17.79000000
   C     68.94000000    87.35000000    20.81000000
   C     69.56000000    87.43000000    22.20000000
   C     68.73000000    88.11000000    23.29000000
   O     67.91000000    89.00000000    22.97000000
   O     68.91000000    87.86000000    24.50000000
   H     71.17000000    88.43000000    20.03000000
   H     70.02000000    85.71000000    20.02000000
   H     67.98000000    86.85000000    20.85000000
   H     68.73000000    88.34000000    20.40000000
   H     70.45000000    88.05000000    22.12000000
   H     69.89000000    86.44000000    22.52000000
   N     69.71000000    87.93000000    17.61000000
   C     69.40000000    88.02000000    16.20000000
   H     68.59300000    88.73700000    16.05100000
   H     70.28400000    88.35000000    15.65300000
   H     69.08900000    87.04200000    15.83300000
   H     70.20000000    88.68000000    18.07000000
  Ca     67.28000000    89.99000000    25.29000000
   O     66.82000000    92.45000000    24.51000000
   H     66.16000000    92.91000000    23.99000000
   H     67.57000000    93.05000000    24.52000000

Ca 1.00



