%chk=loop4.holoCaM.run92.water2.chk
%nprocshared=20
%mem=10GB
%nosave
#b3lyp/svp scf=(tight,noincore,xqc) Test 
#IOP(5/87=12) Density=Current Pop=(MK,readradii) iop(6/33=2) iop(6/42=6)

loop4.holoCaM.run92.water2 

   -3  1 
   C     57.62000000    59.86000000    16.57000000
   C     58.57000000    60.69000000    17.43000000
   O     58.40000000    61.90000000    17.45000000
   H     56.72700000    60.44500000    16.34800000
   H     58.11600000    59.58800000    15.63900000
   H     57.33700000    58.95600000    17.10900000
   N     59.55000000    60.12000000    18.13000000
   C     60.42000000    60.85000000    19.03000000
   C     61.25000000    61.89000000    18.29000000
   O     61.98000000    61.47000000    17.40000000
   C     61.21000000    59.86000000    19.87000000
   C     62.30000000    60.33000000    20.82000000
   O     63.21000000    59.56000000    21.20000000
   O     62.18000000    61.52000000    21.19000000
   H     59.70000000    59.13000000    17.98000000
   H     59.84000000    61.38000000    19.79000000
   H     61.71000000    59.23000000    19.14000000
   H     60.44000000    59.35000000    20.46000000
   N     61.21000000    63.17000000    18.66000000
   C     61.88000000    64.16000000    17.83000000
   C     63.21000000    64.53000000    18.46000000
   O     64.19000000    64.89000000    17.80000000
   C     60.95000000    65.33000000    17.54000000
   C     61.49000000    66.23000000    16.43000000
   C     60.63000000    66.19000000    18.77000000
   C     61.23000000    65.62000000    15.06000000
   H     60.62000000    63.42000000    19.44000000
   H     62.19000000    63.77000000    16.86000000
   H     59.98000000    65.00000000    17.17000000
   H     62.54000000    66.50000000    16.57000000
   H     60.97000000    67.19000000    16.45000000
   H     60.43000000    65.62000000    19.68000000
   H     61.34000000    66.99000000    18.97000000
   H     59.66000000    66.65000000    18.60000000
   H     61.58000000    66.24000000    14.23000000
   H     61.86000000    64.74000000    14.91000000
   H     60.17000000    65.37000000    14.98000000
   N     63.31000000    64.48000000    19.79000000
   C     64.48000000    64.85000000    20.56000000
   C     65.44000000    63.70000000    20.84000000
   O     66.60000000    63.88000000    21.22000000
   C     64.12000000    65.66000000    21.80000000
   C     63.10000000    64.89000000    22.63000000
   O     61.98000000    65.39000000    22.82000000
   O     63.44000000    63.80000000    23.14000000
   H     62.41000000    64.50000000    20.26000000
   H     65.05000000    65.63000000    20.06000000
   H     63.79000000    66.62000000    21.40000000
   H     65.06000000    65.72000000    22.35000000
   N     65.05000000    62.43000000    20.70000000
   C     65.97000000    61.34000000    20.95000000
   C     66.49000000    61.15000000    22.37000000
   O     67.55000000    60.57000000    22.57000000
   H     64.07000000    62.21000000    20.58000000
   H     66.88000000    61.52000000    20.38000000
   H     65.50000000    60.38000000    20.73000000
   N     65.66000000    61.45000000    23.38000000
   C     65.76000000    60.79000000    24.66000000
   C     65.32000000    59.33000000    24.72000000
   O     65.60000000    58.67000000    25.71000000
   C     64.92000000    61.55000000    25.69000000
   C     63.43000000    61.55000000    25.37000000
   O     62.64000000    61.60000000    26.34000000
   O     62.95000000    61.24000000    24.26000000
   H     64.71000000    61.68000000    23.14000000
   H     66.79000000    60.88000000    25.01000000
   H     65.20000000    62.60000000    25.79000000
   H     65.08000000    61.04000000    26.64000000
   N     64.63000000    58.84000000    23.69000000
   C     64.28000000    57.44000000    23.54000000
   C     62.84000000    57.25000000    24.00000000
   O     62.44000000    56.11000000    24.22000000
   H     64.13000000    59.47000000    23.07000000
   H     64.87000000    56.89000000    24.27000000
   H     64.30000000    57.17000000    22.49000000
   N     62.03000000    58.29000000    24.19000000
   C     60.63000000    58.18000000    24.56000000
   C     59.66000000    59.19000000    23.96000000
   O     60.09000000    60.08000000    23.23000000
   C     60.65000000    58.33000000    26.08000000
   C     61.45000000    57.28000000    26.86000000
   C     61.43000000    57.47000000    28.37000000
   N     62.05000000    56.50000000    29.05000000
   O     61.08000000    58.52000000    28.90000000
   H     62.30000000    59.25000000    24.03000000
   H     60.21000000    57.21000000    24.31000000
   H     59.62000000    58.39000000    26.42000000
   H     61.13000000    59.29000000    26.24000000
   H     62.49000000    57.51000000    26.65000000
   H     61.22000000    56.25000000    26.58000000
   H     62.43000000    55.73000000    28.51000000
   H     62.20000000    56.53000000    30.04000000
   N     58.37000000    58.95000000    24.16000000
   C     57.39000000    59.93000000    23.71000000
   C     56.70000000    60.59000000    24.89000000
   O     56.39000000    59.97000000    25.91000000
   C     56.33000000    59.33000000    22.79000000
   C     56.97000000    58.97000000    21.45000000
   C     55.60000000    58.06000000    23.20000000
   H     57.99000000    58.22000000    24.75000000
   H     57.88000000    60.69000000    23.11000000
   H     55.59000000    60.12000000    22.65000000
   H     57.72000000    58.18000000    21.46000000
   H     56.13000000    58.62000000    20.84000000
   H     57.47000000    59.81000000    20.96000000
   H     54.96000000    57.93000000    22.33000000
   H     56.24000000    57.19000000    23.38000000
   H     55.14000000    58.45000000    24.10000000
   N     56.44000000    61.89000000    24.74000000
   C     55.39000000    62.48000000    25.54000000
   C     54.10000000    62.67000000    24.74000000
   O     54.06000000    62.18000000    23.61000000
   C     56.01000000    63.75000000    26.11000000
   C     55.82000000    64.96000000    25.21000000
   N     56.62000000    65.09000000    24.15000000
   O     54.89000000    65.75000000    25.41000000
   H     56.88000000    62.42000000    23.99000000
   H     55.08000000    61.81000000    26.34000000
   H     57.06000000    63.63000000    26.36000000
   H     55.46000000    64.14000000    26.97000000
   H     57.44000000    64.51000000    24.15000000
   H     56.55000000    65.97000000    23.65000000
   N     53.11000000    63.34000000    25.33000000
   C     51.82000000    63.60000000    24.73000000
   C     51.97000000    64.50000000    23.51000000
   O     51.18000000    64.31000000    22.59000000
   C     50.84000000    64.09000000    25.79000000
   C     51.38000000    65.07000000    26.79000000
   C     51.22000000    66.45000000    26.59000000
   C     52.10000000    64.66000000    27.92000000
   C     51.77000000    67.42000000    27.44000000
   C     52.63000000    65.61000000    28.80000000
   C     52.39000000    66.99000000    28.62000000
   O     52.92000000    67.92000000    29.47000000
   H     53.50000000    63.93000000    26.06000000
   H     51.45000000    62.64000000    24.35000000
   H     50.55000000    63.18000000    26.31000000
   H     49.95000000    64.53000000    25.33000000
   H     50.72000000    66.78000000    25.69000000
   H     52.07000000    63.60000000    28.16000000
   H     51.64000000    68.48000000    27.25000000
   H     53.23000000    65.27000000    29.63000000
   H     53.29000000    67.50000000    30.24000000
   N     52.92000000    65.43000000    23.41000000
   C     53.12000000    66.21000000    22.20000000
   C     53.76000000    65.50000000    21.02000000
   O     53.67000000    65.92000000    19.87000000
   C     53.82000000    67.52000000    22.55000000
   C     52.91000000    68.37000000    23.43000000
   C     53.55000000    69.61000000    24.04000000
   O     53.67000000    69.75000000    25.28000000
   O     54.00000000    70.48000000    23.26000000
   H     53.54000000    65.53000000    24.19000000
   H     52.08000000    66.45000000    21.96000000
   H     54.03000000    68.14000000    21.68000000
   H     54.67000000    67.25000000    23.18000000
   H     52.45000000    67.86000000    24.27000000
   H     52.06000000    68.59000000    22.79000000
   N     54.41000000    64.39000000    21.38000000
   C     54.99000000    63.53000000    20.37000000
   C     54.01000000    62.45000000    19.96000000
   O     53.87000000    62.14000000    18.78000000
   C     56.30000000    62.89000000    20.82000000
   C     57.39000000    63.94000000    21.00000000
   C     58.63000000    63.47000000    21.75000000
   O     58.62000000    63.15000000    22.96000000
   O     59.72000000    63.37000000    21.15000000
   H     54.47000000    64.05000000    22.33000000
   H     55.14000000    64.13000000    19.47000000
   H     56.68000000    62.20000000    20.07000000
   H     56.10000000    62.37000000    21.76000000
   H     56.90000000    64.78000000    21.49000000
   H     57.64000000    64.33000000    20.02000000
   N     53.28000000    61.83000000    20.89000000
   C     52.28000000    60.78000000    20.81000000
   H     51.38700000    61.16600000    20.31800000
   H     52.67700000    59.94300000    20.23600000
   H     52.02400000    60.44400000    21.81500000
   H     53.39000000    62.16000000    21.84000000
  Ca     61.09000000    62.62000000    23.23000000
   O     60.70000000    64.63000000    25.17000000
   H     61.01000000    65.13000000    25.92000000
   H     60.22000000    65.27000000    24.64000000
   O     60.14000000    62.10000000    25.73000000
   H     60.40000000    63.01000000    25.80000000
   H     60.82000000    61.61000000    26.19000000

Ca 1.00



