%chk=loop1.holoCaM.run95.water2.chk
%nprocshared=20
%mem=10GB
%nosave
#b3lyp/svp scf=(tight,noincore,xqc) Test 
#IOP(5/87=12) Density=Current Pop=(MK,readradii) iop(6/33=2) iop(6/42=6)

loop1.holoCaM.run95.water2 

   0  1 
   C     38.03000000    70.54000000    29.75000000
   C     37.00000000    70.27000000    30.84000000
   O     35.85000000    70.67000000    30.69000000
   H     38.96600000    70.04100000    30.00300000
   H     37.66100000    70.15800000    28.79800000
   H     38.20100000    71.61300000    29.66900000
   N     37.28000000    69.69000000    32.01000000
   C     36.55000000    69.95000000    33.23000000
   C     36.71000000    71.38000000    33.73000000
   O     37.78000000    71.81000000    34.17000000
   C     36.92000000    68.95000000    34.32000000
   C     36.28000000    69.22000000    35.68000000
   O     35.23000000    69.89000000    35.78000000
   O     36.81000000    68.50000000    36.56000000
   H     38.26000000    69.48000000    32.11000000
   H     35.49000000    69.79000000    33.01000000
   H     37.99000000    68.92000000    34.55000000
   H     36.55000000    67.98000000    34.00000000
   N     35.62000000    72.14000000    33.64000000
   C     35.64000000    73.54000000    33.99000000
   C     35.51000000    73.88000000    35.47000000
   O     35.58000000    75.06000000    35.80000000
   C     34.55000000    74.22000000    33.16000000
   C     34.70000000    74.12000000    31.64000000
   C     35.99000000    74.75000000    31.12000000
   C     36.23000000    74.45000000    29.64000000
   N     37.32000000    75.34000000    29.23000000
   H     34.76000000    71.64000000    33.42000000
   H     36.57000000    74.03000000    33.71000000
   H     34.51000000    75.28000000    33.42000000
   H     33.54000000    73.89000000    33.41000000
   H     33.85000000    74.55000000    31.13000000
   H     34.61000000    73.05000000    31.48000000
   H     36.93000000    74.52000000    31.62000000
   H     35.81000000    75.81000000    31.31000000
   H     35.30000000    74.61000000    29.09000000
   H     36.50000000    73.39000000    29.56000000
   H     37.11000000    76.31000000    29.40000000
   H     38.12000000    75.12000000    29.80000000
   H     37.55000000    75.08000000    28.28000000
   N     35.05000000    72.94000000    36.29000000
   C     34.69000000    73.15000000    37.68000000
   C     35.44000000    72.29000000    38.70000000
   O     35.61000000    72.75000000    39.83000000
   C     33.20000000    73.39000000    37.89000000
   C     32.17000000    72.34000000    37.47000000
   O     32.51000000    71.33000000    36.82000000
   O     31.00000000    72.52000000    37.85000000
   H     34.70000000    72.14000000    35.77000000
   H     35.15000000    74.10000000    37.96000000
   H     32.92000000    74.32000000    37.41000000
   H     33.09000000    73.67000000    38.93000000
   N     36.01000000    71.18000000    38.24000000
   C     37.09000000    70.50000000    38.93000000
   C     36.65000000    69.30000000    39.75000000
   O     37.03000000    69.17000000    40.91000000
   H     35.82000000    70.94000000    37.27000000
   H     37.63000000    71.20000000    39.57000000
   H     37.75000000    70.30000000    38.09000000
   N     35.88000000    68.42000000    39.11000000
   C     35.40000000    67.15000000    39.62000000
   C     35.94000000    65.93000000    38.91000000
   O     35.49000000    64.83000000    39.24000000
   C     33.87000000    67.14000000    39.61000000
   C     33.33000000    67.54000000    38.24000000
   O     33.81000000    67.09000000    37.18000000
   O     32.38000000    68.33000000    38.10000000
   H     35.90000000    68.51000000    38.10000000
   H     35.81000000    67.04000000    40.63000000
   H     33.56000000    67.96000000    40.26000000
   H     33.39000000    66.21000000    39.91000000
   N     36.82000000    65.98000000    37.91000000
   C     37.31000000    64.87000000    37.10000000
   C     36.31000000    64.19000000    36.18000000
   O     36.59000000    63.12000000    35.64000000
   H     37.07000000    66.89000000    37.57000000
   H     37.87000000    64.15000000    37.70000000
   H     38.08000000    65.21000000    36.42000000
   N     35.16000000    64.84000000    35.97000000
   C     34.07000000    64.44000000    35.09000000
   C     33.60000000    65.56000000    34.18000000
   O     33.61000000    66.73000000    34.57000000
   C     32.88000000    63.84000000    35.83000000
   C     33.17000000    62.47000000    36.42000000
   O     32.51000000    64.62000000    36.94000000
   H     35.02000000    65.73000000    36.42000000
   H     34.54000000    63.70000000    34.44000000
   H     32.07000000    63.81000000    35.10000000
   H     33.21000000    65.27000000    36.97000000
   H     33.65000000    62.64000000    37.39000000
   H     32.21000000    62.00000000    36.62000000
   H     33.87000000    61.93000000    35.78000000
   N     33.24000000    65.24000000    32.94000000
   C     32.63000000    66.11000000    31.96000000
   C     31.15000000    65.85000000    31.72000000
   O     30.76000000    64.69000000    31.79000000
   C     33.54000000    66.10000000    30.73000000
   C     35.04000000    66.23000000    30.99000000
   C     33.15000000    67.18000000    29.72000000
   C     35.99000000    66.09000000    29.81000000
   H     33.25000000    64.28000000    32.62000000
   H     32.57000000    67.14000000    32.32000000
   H     33.42000000    65.15000000    30.22000000
   H     35.33000000    65.42000000    31.66000000
   H     35.27000000    67.11000000    31.59000000
   H     32.08000000    67.35000000    29.73000000
   H     33.67000000    68.10000000    30.00000000
   H     33.52000000    66.90000000    28.73000000
   H     35.67000000    65.12000000    29.42000000
   H     35.86000000    66.83000000    29.02000000
   H     37.03000000    66.09000000    30.13000000
   N     30.34000000    66.89000000    31.50000000
   C     28.90000000    66.83000000    31.36000000
   C     28.49000000    67.21000000    29.94000000
   O     29.19000000    67.85000000    29.16000000
   C     28.18000000    67.71000000    32.38000000
   C     28.54000000    67.43000000    33.83000000
   O     28.42000000    69.09000000    32.24000000
   H     30.79000000    67.79000000    31.49000000
   H     28.50000000    65.82000000    31.47000000
   H     27.12000000    67.54000000    32.20000000
   H     28.16000000    69.44000000    33.10000000
   H     28.36000000    66.40000000    34.15000000
   H     29.62000000    67.54000000    33.85000000
   H     28.03000000    68.08000000    34.55000000
   N     27.23000000    66.86000000    29.65000000
   C     26.53000000    67.41000000    28.51000000
   C     26.76000000    68.91000000    28.38000000
   O     27.06000000    69.32000000    27.26000000
   C     25.02000000    67.18000000    28.43000000
   C     24.79000000    65.75000000    27.97000000
   O     24.48000000    67.41000000    29.71000000
   H     26.77000000    66.20000000    30.26000000
   H     26.87000000    66.85000000    27.64000000
   H     24.57000000    67.91000000    27.76000000
   H     23.54000000    67.23000000    29.61000000
   H     25.61000000    65.14000000    28.35000000
   H     23.84000000    65.33000000    28.30000000
   H     24.86000000    65.62000000    26.89000000
   N     26.63000000    69.68000000    29.46000000
   C     26.87000000    71.11000000    29.41000000
   C     28.29000000    71.53000000    29.09000000
   O     28.45000000    72.40000000    28.24000000
   C     26.40000000    71.68000000    30.75000000
   C     25.08000000    71.23000000    31.37000000
   C     23.90000000    71.21000000    30.40000000
   C     23.60000000    72.46000000    29.58000000
   N     22.79000000    72.01000000    28.44000000
   H     26.42000000    69.21000000    30.33000000
   H     26.21000000    71.56000000    28.67000000
   H     26.30000000    72.75000000    30.64000000
   H     27.22000000    71.50000000    31.46000000
   H     24.86000000    71.91000000    32.19000000
   H     25.19000000    70.20000000    31.70000000
   H     22.99000000    71.11000000    30.99000000
   H     24.03000000    70.34000000    29.76000000
   H     24.53000000    72.89000000    29.22000000
   H     23.03000000    73.20000000    30.15000000
   H     23.35000000    71.58000000    27.72000000
   H     22.18000000    71.27000000    28.76000000
   H     22.35000000    72.84000000    28.06000000
   N     29.30000000    70.82000000    29.62000000
   C     30.72000000    71.03000000    29.45000000
   C     31.27000000    70.62000000    28.10000000
   O     32.33000000    71.12000000    27.72000000
   C     31.50000000    70.33000000    30.56000000
   C     31.32000000    71.08000000    31.87000000
   C     32.16000000    70.31000000    32.88000000
   O     31.91000000    69.12000000    33.17000000
   O     33.02000000    70.89000000    33.58000000
   H     28.95000000    70.26000000    30.39000000
   H     30.81000000    72.11000000    29.57000000
   H     32.55000000    70.21000000    30.30000000
   H     31.08000000    69.32000000    30.63000000
   H     30.27000000    71.26000000    32.10000000
   H     31.73000000    72.08000000    31.74000000
   N     30.44000000    69.91000000    27.32000000
   C     30.64000000    69.53000000    25.94000000
   H     31.69000000    69.28600000    25.78000000
   H     30.02600000    68.66000000    25.71000000
   H     30.35700000    70.35800000    25.29000000
   H     29.54000000    69.77000000    27.77000000
  Ca     32.72000000    69.02000000    35.58000000
   O     30.20000000    70.49000000    35.42000000
   H     29.64000000    70.79000000    36.13000000
   H     29.88000000    70.97000000    34.65000000
   O     30.70000000    67.45000000    36.18000000
   H     31.06000000    67.20000000    37.03000000
   H     29.97000000    66.84000000    36.05000000

Ca 1.00



