%chk=loop1.holoCaM.run66.water2.chk
%nprocshared=20
%mem=10GB
%nosave
#b3lyp/svp scf=(tight,noincore,xqc) Test 
#IOP(5/87=12) Density=Current Pop=(MK,readradii) iop(6/33=2) iop(6/42=6)

loop1.holoCaM.run66.water2 

   0  1 
   C     30.10000000    74.46000000    20.97000000
   C     29.21000000    73.36000000    21.52000000
   O     28.67000000    72.56000000    20.76000000
   H     31.05400000    74.03400000    20.66000000
   H     29.61500000    74.92600000    20.11200000
   H     30.27200000    75.20900000    21.74300000
   N     28.92000000    73.43000000    22.82000000
   C     27.95000000    72.55000000    23.45000000
   C     26.58000000    73.21000000    23.50000000
   O     26.30000000    74.26000000    24.05000000
   C     28.52000000    72.30000000    24.85000000
   C     27.51000000    71.59000000    25.74000000
   O     27.79000000    71.52000000    26.95000000
   O     26.41000000    71.17000000    25.34000000
   H     29.45000000    74.07000000    23.40000000
   H     28.00000000    71.56000000    23.00000000
   H     28.71000000    73.27000000    25.32000000
   H     29.49000000    71.79000000    24.80000000
   N     25.69000000    72.60000000    22.71000000
   C     24.42000000    73.19000000    22.33000000
   C     23.43000000    73.20000000    23.49000000
   O     22.72000000    74.19000000    23.66000000
   C     23.92000000    72.66000000    20.99000000
   C     24.79000000    73.34000000    19.94000000
   C     24.21000000    73.27000000    18.53000000
   C     24.97000000    74.06000000    17.47000000
   N     24.41000000    73.94000000    16.11000000
   H     26.03000000    71.74000000    22.30000000
   H     24.57000000    74.26000000    22.20000000
   H     22.88000000    72.95000000    20.86000000
   H     24.10000000    71.59000000    20.99000000
   H     25.81000000    72.97000000    20.05000000
   H     24.75000000    74.40000000    20.17000000
   H     23.19000000    73.67000000    18.54000000
   H     24.22000000    72.22000000    18.21000000
   H     26.01000000    73.73000000    17.41000000
   H     25.01000000    75.11000000    17.73000000
   H     24.92000000    74.56000000    15.50000000
   H     24.50000000    72.99000000    15.77000000
   H     23.43000000    74.14000000    16.02000000
   N     23.40000000    72.14000000    24.29000000
   C     22.53000000    71.97000000    25.44000000
   C     23.12000000    72.33000000    26.79000000
   O     22.41000000    72.58000000    27.75000000
   C     21.78000000    70.64000000    25.32000000
   C     22.59000000    69.39000000    25.02000000
   O     21.95000000    68.40000000    24.60000000
   O     23.82000000    69.31000000    25.22000000
   H     23.99000000    71.37000000    24.01000000
   H     21.67000000    72.63000000    25.30000000
   H     21.15000000    70.70000000    24.43000000
   H     21.19000000    70.44000000    26.22000000
   N     24.45000000    72.49000000    26.77000000
   C     25.12000000    72.95000000    27.97000000
   C     25.23000000    71.87000000    29.04000000
   O     25.08000000    72.15000000    30.23000000
   H     24.93000000    72.35000000    25.89000000
   H     24.45000000    73.72000000    28.34000000
   H     26.08000000    73.29000000    27.58000000
   N     25.51000000    70.62000000    28.64000000
   C     25.71000000    69.50000000    29.54000000
   C     27.14000000    69.30000000    30.03000000
   O     27.38000000    68.38000000    30.81000000
   C     25.09000000    68.25000000    28.92000000
   C     25.65000000    67.97000000    27.53000000
   O     25.06000000    67.15000000    26.79000000
   O     26.70000000    68.48000000    27.10000000
   H     25.72000000    70.40000000    27.68000000
   H     25.06000000    69.58000000    30.41000000
   H     24.01000000    68.26000000    29.01000000
   H     25.45000000    67.41000000    29.52000000
   N     28.07000000    70.14000000    29.57000000
   C     29.46000000    69.98000000    29.95000000
   C     30.27000000    69.12000000    28.99000000
   O     31.43000000    68.83000000    29.27000000
   H     27.82000000    70.78000000    28.82000000
   H     29.40000000    69.58000000    30.96000000
   H     29.98000000    70.94000000    30.02000000
   N     29.65000000    68.66000000    27.90000000
   C     30.20000000    67.77000000    26.90000000
   C     29.74000000    68.02000000    25.47000000
   O     28.79000000    68.72000000    25.15000000
   C     29.85000000    66.34000000    27.33000000
   C     30.75000000    65.75000000    28.41000000
   O     28.47000000    66.20000000    27.56000000
   H     28.74000000    69.07000000    27.75000000
   H     31.29000000    67.74000000    26.92000000
   H     30.18000000    65.62000000    26.59000000
   H     28.10000000    67.06000000    27.34000000
   H     31.73000000    65.46000000    28.01000000
   H     30.91000000    66.39000000    29.28000000
   H     30.24000000    64.86000000    28.77000000
   N     30.51000000    67.41000000    24.56000000
   C     30.30000000    67.33000000    23.13000000
   C     30.11000000    65.89000000    22.67000000
   O     30.87000000    65.04000000    23.11000000
   C     31.33000000    68.11000000    22.33000000
   C     31.19000000    69.60000000    22.66000000
   C     31.36000000    67.92000000    20.81000000
   C     32.25000000    70.59000000    22.21000000
   H     31.35000000    66.92000000    24.85000000
   H     29.44000000    67.92000000    22.84000000
   H     32.32000000    67.82000000    22.67000000
   H     31.15000000    69.76000000    23.73000000
   H     30.22000000    69.94000000    22.29000000
   H     30.44000000    68.29000000    20.37000000
   H     32.27000000    68.43000000    20.48000000
   H     31.51000000    66.86000000    20.62000000
   H     32.17000000    70.53000000    21.13000000
   H     31.98000000    71.58000000    22.58000000
   H     33.26000000    70.37000000    22.58000000
   N     29.14000000    65.75000000    21.75000000
   C     28.81000000    64.56000000    21.00000000
   C     28.97000000    64.74000000    19.50000000
   O     28.98000000    65.88000000    19.06000000
   C     27.41000000    64.00000000    21.26000000
   C     26.17000000    64.74000000    20.77000000
   O     27.25000000    62.71000000    20.70000000
   H     28.69000000    66.58000000    21.41000000
   H     29.50000000    63.78000000    21.34000000
   H     27.32000000    63.88000000    22.34000000
   H     27.41000000    62.04000000    21.36000000
   H     25.83000000    65.61000000    21.34000000
   H     26.27000000    65.05000000    19.73000000
   H     25.32000000    64.07000000    20.70000000
   N     29.00000000    63.75000000    18.60000000
   C     29.16000000    63.88000000    17.17000000
   C     28.24000000    64.89000000    16.50000000
   O     28.66000000    65.72000000    15.69000000
   C     28.76000000    62.54000000    16.56000000
   C     29.77000000    61.41000000    16.39000000
   O     27.67000000    61.98000000    17.25000000
   H     28.79000000    62.80000000    18.88000000
   H     30.22000000    63.89000000    16.93000000
   H     28.49000000    62.78000000    15.53000000
   H     27.71000000    61.02000000    17.26000000
   H     30.30000000    61.26000000    17.34000000
   H     29.26000000    60.50000000    16.08000000
   H     30.45000000    61.67000000    15.58000000
   N     26.96000000    64.92000000    16.89000000
   C     25.97000000    65.77000000    16.27000000
   C     25.99000000    67.24000000    16.66000000
   O     25.40000000    68.04000000    15.94000000
   C     24.56000000    65.18000000    16.27000000
   C     24.49000000    63.76000000    15.72000000
   C     23.07000000    63.45000000    15.26000000
   C     22.75000000    62.00000000    14.92000000
   N     23.25000000    61.66000000    13.58000000
   H     26.60000000    64.26000000    17.57000000
   H     26.19000000    65.77000000    15.20000000
   H     23.95000000    65.79000000    15.61000000
   H     24.14000000    65.28000000    17.27000000
   H     24.78000000    63.01000000    16.46000000
   H     25.16000000    63.68000000    14.86000000
   H     22.94000000    64.16000000    14.45000000
   H     22.31000000    63.76000000    15.98000000
   H     21.66000000    62.04000000    14.98000000
   H     23.12000000    61.26000000    15.63000000
   H     24.23000000    61.43000000    13.57000000
   H     22.70000000    60.87000000    13.26000000
   H     23.07000000    62.41000000    12.93000000
   N     26.79000000    67.62000000    17.66000000
   C     27.34000000    68.94000000    17.89000000
   C     28.74000000    69.13000000    17.33000000
   O     29.00000000    70.15000000    16.69000000
   C     27.48000000    69.15000000    19.40000000
   C     26.13000000    69.24000000    20.10000000
   C     26.24000000    69.11000000    21.61000000
   O     27.09000000    68.37000000    22.15000000
   O     25.40000000    69.68000000    22.34000000
   H     27.18000000    66.89000000    18.24000000
   H     26.69000000    69.66000000    17.39000000
   H     28.02000000    70.10000000    19.46000000
   H     28.04000000    68.34000000    19.86000000
   H     25.60000000    68.36000000    19.75000000
   H     25.61000000    70.10000000    19.68000000
   N     29.61000000    68.13000000    17.38000000
   C     31.01000000    68.19000000    16.98000000
   H     31.62800000    67.73300000    17.75300000
   H     31.14400000    67.65100000    16.04200000
   H     31.30600000    69.23100000    16.84700000
   H     29.33000000    67.35000000    17.96000000
  Ca     26.13000000    68.55000000    24.63000000
   O     26.75000000    65.99000000    24.39000000
   H     25.93000000    65.49000000    24.34000000
   H     27.40000000    65.37000000    24.71000000
   O     24.17000000    67.11000000    23.45000000
   H     23.51000000    67.80000000    23.55000000
   H     23.98000000    66.72000000    22.60000000

Ca 1.00



