%chk=loop1.holoCaM.run88.water2.chk
%nprocshared=20
%mem=10GB
%nosave
#b3lyp/svp scf=(tight,noincore,xqc) Test 
#IOP(5/87=12) Density=Current Pop=(MK,readradii) iop(6/33=2) iop(6/42=6)

loop1.holoCaM.run88.water2 

   0  1 
   C     63.84000000    81.45000000    49.84000000
   C     63.46000000    82.14000000    51.15000000
   O     63.42000000    83.36000000    51.09000000
   H     64.86700000    81.09000000    49.90400000
   H     63.17100000    80.60800000    49.66500000
   H     63.75500000    82.15900000    49.01700000
   N     63.11000000    81.42000000    52.22000000
   C     63.12000000    82.00000000    53.55000000
   C     64.57000000    82.25000000    53.91000000
   O     65.40000000    81.35000000    53.87000000
   C     62.46000000    80.99000000    54.49000000
   C     62.54000000    81.40000000    55.95000000
   O     62.25000000    80.57000000    56.84000000
   O     62.81000000    82.57000000    56.32000000
   H     63.03000000    80.43000000    52.09000000
   H     62.54000000    82.92000000    53.54000000
   H     62.86000000    79.97000000    54.45000000
   H     61.41000000    80.89000000    54.21000000
   N     64.94000000    83.51000000    54.15000000
   C     66.28000000    84.02000000    54.34000000
   C     66.59000000    84.42000000    55.78000000
   O     67.74000000    84.73000000    56.07000000
   C     66.57000000    85.12000000    53.32000000
   C     66.66000000    84.57000000    51.90000000
   C     66.94000000    85.56000000    50.78000000
   C     66.70000000    84.86000000    49.45000000
   N     67.61000000    83.75000000    49.15000000
   H     64.16000000    84.13000000    54.31000000
   H     67.06000000    83.29000000    54.15000000
   H     67.49000000    85.65000000    53.58000000
   H     65.75000000    85.84000000    53.25000000
   H     65.69000000    84.13000000    51.69000000
   H     67.42000000    83.78000000    51.95000000
   H     67.97000000    85.94000000    50.78000000
   H     66.28000000    86.42000000    50.91000000
   H     66.84000000    85.62000000    48.69000000
   H     65.67000000    84.51000000    49.34000000
   H     67.46000000    83.03000000    49.85000000
   H     67.40000000    83.44000000    48.21000000
   H     68.54000000    84.14000000    49.15000000
   N     65.72000000    84.34000000    56.79000000
   C     65.91000000    84.74000000    58.17000000
   C     65.44000000    83.69000000    59.16000000
   O     65.56000000    83.81000000    60.38000000
   C     65.33000000    86.10000000    58.57000000
   C     63.88000000    86.35000000    58.22000000
   O     63.36000000    85.42000000    57.56000000
   O     63.31000000    87.42000000    58.53000000
   H     64.76000000    84.39000000    56.46000000
   H     66.97000000    84.87000000    58.34000000
   H     65.87000000    86.86000000    58.01000000
   H     65.43000000    86.26000000    59.65000000
   N     64.96000000    82.55000000    58.66000000
   C     64.54000000    81.35000000    59.34000000
   C     63.28000000    81.37000000    60.20000000
   O     63.36000000    81.60000000    61.40000000
   H     64.77000000    82.51000000    57.67000000
   H     65.26000000    80.89000000    60.02000000
   H     64.51000000    80.55000000    58.60000000
   N     62.11000000    81.18000000    59.57000000
   C     60.85000000    81.09000000    60.29000000
   C     59.91000000    80.07000000    59.66000000
   O     58.94000000    79.71000000    60.32000000
   C     60.11000000    82.42000000    60.40000000
   C     60.12000000    83.21000000    59.10000000
   O     59.67000000    82.76000000    58.03000000
   O     60.72000000    84.31000000    59.10000000
   H     62.13000000    81.17000000    58.56000000
   H     61.12000000    80.80000000    61.30000000
   H     60.47000000    83.03000000    61.22000000
   H     59.08000000    82.15000000    60.64000000
   N     60.18000000    79.56000000    58.46000000
   C     59.32000000    78.69000000    57.69000000
   C     58.33000000    79.44000000    56.81000000
   O     57.30000000    78.85000000    56.49000000
   H     60.94000000    79.94000000    57.91000000
   H     58.76000000    78.01000000    58.33000000
   H     59.87000000    78.01000000    57.03000000
   N     58.58000000    80.69000000    56.42000000
   C     57.66000000    81.50000000    55.65000000
   C     58.54000000    82.50000000    54.92000000
   O     59.58000000    82.99000000    55.36000000
   C     56.52000000    82.19000000    56.39000000
   C     55.45000000    81.36000000    57.09000000
   O     57.08000000    83.01000000    57.39000000
   H     59.40000000    81.09000000    56.85000000
   H     57.15000000    80.89000000    54.90000000
   H     55.93000000    82.79000000    55.68000000
   H     57.93000000    82.65000000    57.64000000
   H     55.12000000    80.44000000    56.60000000
   H     55.67000000    81.12000000    58.13000000
   H     54.58000000    82.01000000    57.14000000
   N     58.02000000    82.90000000    53.76000000
   C     58.53000000    83.81000000    52.75000000
   C     57.74000000    85.11000000    52.68000000
   O     56.53000000    85.08000000    52.85000000
   C     58.46000000    83.11000000    51.39000000
   C     59.43000000    81.93000000    51.31000000
   C     58.76000000    84.15000000    50.32000000
   C     59.23000000    81.20000000    49.98000000
   H     57.19000000    82.37000000    53.52000000
   H     59.57000000    84.06000000    52.93000000
   H     57.46000000    82.70000000    51.32000000
   H     59.23000000    81.21000000    52.10000000
   H     60.46000000    82.28000000    51.36000000
   H     57.96000000    84.89000000    50.26000000
   H     59.69000000    84.68000000    50.52000000
   H     58.88000000    83.72000000    49.33000000
   H     58.17000000    80.95000000    49.88000000
   H     59.58000000    81.76000000    49.11000000
   H     59.80000000    80.28000000    49.90000000
   N     58.39000000    86.24000000    52.34000000
   C     57.81000000    87.57000000    52.33000000
   C     58.27000000    88.41000000    51.15000000
   O     59.18000000    88.05000000    50.40000000
   C     58.17000000    88.34000000    53.59000000
   C     57.21000000    87.87000000    54.68000000
   O     59.46000000    88.37000000    54.15000000
   H     59.38000000    86.15000000    52.19000000
   H     56.73000000    87.46000000    52.24000000
   H     57.93000000    89.39000000    53.40000000
   H     59.76000000    87.48000000    54.35000000
   H     57.40000000    86.84000000    54.99000000
   H     57.46000000    88.40000000    55.60000000
   H     56.18000000    88.11000000    54.42000000
   N     57.60000000    89.52000000    50.82000000
   C     58.03000000    90.56000000    49.91000000
   C     59.48000000    91.00000000    50.04000000
   O     60.04000000    91.14000000    48.96000000
   C     57.18000000    91.81000000    50.14000000
   C     55.78000000    91.60000000    49.58000000
   O     57.10000000    92.14000000    51.51000000
   H     56.74000000    89.78000000    51.28000000
   H     57.85000000    90.25000000    48.88000000
   H     57.69000000    92.54000000    49.51000000
   H     56.63000000    92.97000000    51.59000000
   H     55.80000000    90.92000000    48.73000000
   H     55.12000000    91.12000000    50.31000000
   H     55.39000000    92.57000000    49.30000000
   N     60.05000000    91.13000000    51.24000000
   C     61.47000000    91.42000000    51.38000000
   C     62.42000000    90.32000000    50.93000000
   O     63.61000000    90.51000000    50.70000000
   C     61.74000000    91.74000000    52.85000000
   C     60.88000000    92.82000000    53.50000000
   C     61.12000000    94.18000000    52.85000000
   C     60.34000000    95.27000000    53.59000000
   N     60.42000000    96.60000000    52.97000000
   H     59.40000000    91.20000000    52.01000000
   H     61.79000000    92.23000000    50.74000000
   H     62.79000000    92.01000000    52.92000000
   H     61.57000000    90.78000000    53.34000000
   H     61.09000000    93.07000000    54.54000000
   H     59.82000000    92.60000000    53.35000000
   H     60.93000000    94.24000000    51.78000000
   H     62.17000000    94.48000000    52.88000000
   H     60.69000000    95.34000000    54.62000000
   H     59.29000000    94.98000000    53.54000000
   H     59.78000000    96.62000000    52.19000000
   H     60.06000000    97.29000000    53.62000000
   H     61.38000000    96.87000000    52.84000000
   N     61.86000000    89.11000000    50.90000000
   C     62.63000000    87.93000000    50.55000000
   C     62.48000000    87.64000000    49.06000000
   O     63.47000000    87.15000000    48.53000000
   C     62.17000000    86.79000000    51.45000000
   C     62.53000000    87.11000000    52.90000000
   C     62.05000000    86.03000000    53.87000000
   O     60.87000000    86.12000000    54.27000000
   O     62.79000000    85.22000000    54.47000000
   H     60.90000000    88.95000000    51.17000000
   H     63.69000000    88.01000000    50.77000000
   H     62.66000000    85.83000000    51.28000000
   H     61.09000000    86.66000000    51.48000000
   H     62.11000000    88.07000000    53.21000000
   H     63.60000000    87.19000000    53.05000000
   N     61.40000000    88.01000000    48.36000000
   C     61.14000000    87.64000000    46.98000000
   H     60.36100000    88.28400000    46.57200000
   H     62.05200000    87.75700000    46.39400000
   H     60.81100000    86.60200000    46.93700000
   H     60.71000000    88.60000000    48.79000000
  Ca     61.22000000    84.61000000    56.49000000
   O     61.04000000    87.44000000    57.27000000
   H     60.33000000    87.91000000    57.71000000
   H     61.75000000    87.42000000    57.90000000
   O     58.65000000    85.33000000    56.63000000
   H     58.13000000    84.56000000    56.85000000
   H     58.02000000    85.95000000    56.25000000

Ca 1.00



