%chk=loop1.apoCaM-CA-Ng.Init293.run53.water6.chk
%nprocshared=20
%mem=10GB
%nosave
#b3lyp/svp scf=(tight,noincore,xqc) Test 
#IOP(5/87=12) Density=Current Pop=(MK,readradii) iop(6/33=2) iop(6/42=6)

loop1.apoCaM-CA-Ng.Init293.run53.water6 

   0  1 
   C     70.09000000    83.87000000   100.29000000
   C     71.42000000    84.61000000   100.38000000
   O     71.52000000    85.78000000   100.03000000
   H     69.34100000    84.52300000    99.84100000
   H     70.21000000    82.97900000    99.67400000
   H     69.76600000    83.58100000   101.29000000
   N     72.48000000    83.93000000   100.81000000
   C     73.80000000    84.45000000   101.11000000
   C     74.89000000    84.03000000   100.13000000
   O     76.03000000    84.44000000   100.33000000
   C     74.11000000    84.26000000   102.59000000
   C     74.27000000    82.82000000   103.04000000
   O     73.79000000    81.91000000   102.33000000
   O     74.81000000    82.61000000   104.16000000
   H     72.41000000    82.94000000   101.03000000
   H     73.75000000    85.53000000   100.97000000
   H     73.30000000    84.71000000   103.17000000
   H     75.00000000    84.82000000   102.87000000
   N     74.60000000    83.34000000    99.03000000
   C     75.57000000    82.67000000    98.18000000
   C     75.89000000    83.45000000    96.91000000
   O     74.97000000    83.66000000    96.13000000
   C     74.95000000    81.31000000    97.89000000
   C     74.71000000    80.37000000    99.07000000
   C     75.94000000    80.24000000    99.96000000
   C     75.81000000    79.14000000   101.00000000
   N     74.74000000    79.44000000   101.96000000
   H     73.64000000    83.04000000    99.02000000
   H     76.48000000    82.52000000    98.77000000
   H     75.68000000    80.80000000    97.26000000
   H     74.00000000    81.41000000    97.35000000
   H     74.40000000    79.40000000    98.67000000
   H     73.92000000    80.79000000    99.69000000
   H     76.08000000    81.22000000   100.42000000
   H     76.78000000    80.03000000    99.29000000
   H     76.76000000    79.13000000   101.54000000
   H     75.62000000    78.13000000   100.64000000
   H     73.84000000    79.00000000   101.83000000
   H     75.08000000    79.20000000   102.88000000
   H     74.47000000    80.42000000   101.96000000
   N     77.11000000    83.81000000    96.49000000
   C     78.39000000    83.70000000    97.15000000
   C     79.40000000    84.82000000    96.95000000
   O     80.28000000    84.75000000    96.10000000
   C     79.01000000    82.36000000    96.78000000
   C     80.22000000    81.97000000    97.61000000
   O     80.86000000    80.97000000    97.22000000
   O     80.48000000    82.65000000    98.62000000
   H     77.19000000    84.19000000    95.56000000
   H     78.31000000    83.61000000    98.24000000
   H     79.30000000    82.44000000    95.73000000
   H     78.24000000    81.58000000    96.71000000
   N     79.44000000    85.79000000    97.87000000
   C     78.62000000    86.05000000    99.04000000
   C     79.16000000    87.16000000    99.92000000
   O     80.32000000    87.52000000    99.73000000
   H     80.28000000    86.34000000    97.88000000
   H     78.55000000    85.16000000    99.66000000
   H     77.65000000    86.40000000    98.66000000
   N     78.36000000    87.91000000   100.68000000
   C     77.01000000    87.55000000   101.06000000
   C     76.75000000    88.06000000   102.47000000
   O     77.60000000    88.71000000   103.08000000
   C     76.09000000    88.25000000   100.05000000
   C     76.34000000    89.75000000    99.98000000
   O     76.63000000    90.19000000    98.85000000
   O     75.86000000    90.51000000   100.84000000
   H     78.72000000    88.71000000   101.17000000
   H     76.75000000    86.49000000   101.02000000
   H     75.05000000    88.03000000   100.28000000
   H     76.16000000    87.78000000    99.08000000
   N     75.53000000    87.85000000   102.97000000
   C     74.92000000    88.25000000   104.21000000
   C     73.96000000    89.43000000   104.14000000
   O     73.29000000    89.77000000   105.12000000
   H     74.84000000    87.39000000   102.39000000
   H     75.73000000    88.43000000   104.91000000
   H     74.26000000    87.48000000   104.62000000
   N     73.96000000    90.17000000   103.03000000
   C     72.99000000    91.12000000   102.53000000
   C     72.26000000    90.76000000   101.24000000
   O     72.81000000    90.09000000   100.37000000
   C     73.67000000    92.49000000   102.51000000
   C     72.72000000    93.68000000   102.49000000
   O     74.38000000    92.62000000   101.30000000
   H     74.69000000    90.02000000   102.35000000
   H     72.17000000    91.19000000   103.25000000
   H     74.34000000    92.62000000   103.35000000
   H     74.94000000    91.85000000   101.21000000
   H     73.14000000    94.68000000   102.56000000
   H     72.17000000    93.57000000   101.56000000
   H     72.10000000    93.71000000   103.39000000
   N     71.04000000    91.26000000   101.06000000
   C     70.03000000    90.72000000   100.17000000
   C     69.13000000    91.90000000    99.87000000
   O     68.08000000    92.15000000   100.46000000
   C     69.38000000    89.44000000   100.70000000
   C     68.34000000    88.81000000    99.78000000
   C     68.78000000    89.50000000   102.10000000
   C     68.56000000    88.80000000    98.27000000
   H     70.68000000    91.88000000   101.78000000
   H     70.41000000    90.40000000    99.20000000
   H     70.24000000    88.77000000   100.64000000
   H     67.39000000    89.31000000    99.98000000
   H     68.29000000    87.76000000   100.07000000
   H     69.58000000    89.72000000   102.80000000
   H     67.96000000    90.22000000   102.18000000
   H     68.49000000    88.49000000   102.39000000
   H     68.66000000    89.84000000    97.96000000
   H     69.44000000    88.16000000    98.21000000
   H     67.65000000    88.39000000    97.84000000
   N     69.57000000    92.62000000    98.84000000
   C     69.17000000    93.97000000    98.47000000
   C     68.69000000    94.14000000    97.03000000
   O     67.91000000    95.04000000    96.74000000
   C     70.28000000    94.89000000    98.96000000
   C     70.09000000    96.35000000    98.57000000
   O     71.54000000    94.49000000    98.45000000
   H     70.38000000    92.25000000    98.36000000
   H     68.37000000    94.19000000    99.17000000
   H     70.39000000    94.68000000   100.02000000
   H     72.19000000    95.16000000    98.69000000
   H     69.05000000    96.61000000    98.81000000
   H     70.75000000    97.02000000    99.12000000
   H     70.22000000    96.41000000    97.49000000
   N     68.94000000    93.15000000    96.17000000
   C     68.33000000    92.79000000    94.91000000
   C     68.68000000    93.80000000    93.83000000
   O     69.35000000    94.81000000    94.02000000
   C     66.83000000    92.57000000    95.07000000
   C     66.41000000    91.54000000    96.12000000
   O     66.17000000    92.20000000    93.88000000
   H     69.67000000    92.54000000    96.51000000
   H     68.73000000    91.82000000    94.60000000
   H     66.42000000    93.53000000    95.40000000
   H     65.31000000    91.83000000    94.12000000
   H     65.32000000    91.53000000    96.09000000
   H     66.68000000    90.49000000    96.01000000
   H     66.68000000    91.91000000    97.10000000
   N     68.39000000    93.49000000    92.56000000
   C     68.83000000    94.23000000    91.40000000
   C     70.28000000    94.15000000    90.91000000
   O     70.69000000    95.10000000    90.24000000
   C     67.78000000    94.09000000    90.30000000
   C     67.87000000    95.16000000    89.22000000
   C     67.52000000    96.51000000    89.82000000
   C     66.28000000    96.64000000    90.71000000
   N     66.14000000    98.00000000    91.24000000
   H     67.83000000    92.69000000    92.34000000
   H     68.73000000    95.27000000    91.70000000
   H     66.79000000    93.99000000    90.74000000
   H     67.89000000    93.11000000    89.84000000
   H     67.16000000    94.87000000    88.45000000
   H     68.85000000    95.23000000    88.75000000
   H     67.42000000    97.22000000    88.99000000
   H     68.39000000    96.95000000    90.31000000
   H     66.41000000    95.98000000    91.57000000
   H     65.37000000    96.32000000    90.22000000
   H     65.22000000    98.13000000    91.65000000
   H     66.86000000    98.30000000    91.88000000
   H     66.09000000    98.61000000    90.44000000
   N     70.93000000    93.00000000    90.98000000
   C     70.87000000    91.66000000    91.53000000
   C     69.58000000    90.91000000    91.21000000
   O     68.95000000    90.40000000    92.13000000
   C     71.34000000    91.60000000    92.98000000
   C     72.77000000    92.12000000    93.08000000
   C     73.60000000    91.81000000    94.32000000
   O     73.22000000    92.11000000    95.48000000
   O     74.76000000    91.43000000    94.08000000
   H     71.75000000    93.03000000    90.40000000
   H     71.58000000    91.12000000    90.91000000
   H     71.34000000    90.59000000    93.40000000
   H     70.73000000    92.02000000    93.78000000
   H     72.84000000    93.19000000    92.93000000
   H     73.33000000    91.79000000    92.20000000
   N     69.19000000    90.75000000    89.94000000
   C     68.03000000    89.96000000    89.59000000
   H     67.22000000    90.62100000    89.28400000
   H     68.28100000    89.28900000    88.76800000
   H     67.71400000    89.37500000    90.45400000
   H     69.70000000    91.09000000    89.14000000
  Ca     75.41000000    91.57000000    96.90000000
   O     73.51000000    89.84000000    97.77000000
   H     73.29000000    90.01000000    98.68000000
   H     73.24000000    88.94000000    97.62000000
   O     76.36000000    89.16000000    95.71000000
   H     75.63000000    88.57000000    95.54000000
   H     77.13000000    88.69000000    95.39000000
   O     75.98000000    94.41000000    95.79000000
   H     76.41000000    95.06000000    96.34000000
   H     75.99000000    94.79000000    94.91000000
   O     76.83000000    93.11000000    98.57000000
   H     76.98000000    92.47000000    99.27000000
   H     76.54000000    93.90000000    99.02000000
   O     77.69000000    91.87000000    95.69000000
   H     77.86000000    91.28000000    94.96000000
   H     78.24000000    92.63000000    95.52000000
   O     73.82000000    92.80000000    98.78000000
   H     73.97000000    92.92000000    99.72000000
   H     73.20000000    93.49000000    98.54000000

Ca 1.00



