%chk=loop3.apoCaM-CA-Ng.Init31.run78.water5.chk
%nprocshared=20
%mem=10GB
%nosave
#b3lyp/svp scf=(tight,noincore,xqc) Test 
#IOP(5/87=12) Density=Current Pop=(MK,readradii) iop(6/33=2) iop(6/42=6)

loop3.apoCaM-CA-Ng.Init31.run78.water5 

   0  1 
   C     89.88000000    51.46000000    15.41000000
   C     88.99000000    50.23000000    15.31000000
   O     88.72000000    49.51000000    16.27000000
   H     90.81100000    51.27900000    14.87200000
   H     89.36800000    52.31600000    14.97100000
   H     90.10000000    51.66500000    16.45800000
   N     88.51000000    49.92000000    14.11000000
   C     87.84000000    48.66000000    13.88000000
   C     88.75000000    47.44000000    13.91000000
   O     89.88000000    47.59000000    13.46000000
   C     87.10000000    48.77000000    12.55000000
   C     88.07000000    48.81000000    11.38000000
   O     88.08000000    47.77000000    10.68000000
   O     88.59000000    49.88000000    10.99000000
   H     88.80000000    50.45000000    13.30000000
   H     87.14000000    48.46000000    14.69000000
   H     86.53000000    49.70000000    12.51000000
   H     86.39000000    47.98000000    12.31000000
   N     88.20000000    46.29000000    14.29000000
   C     88.88000000    45.03000000    14.04000000
   C     89.79000000    44.67000000    15.20000000
   O     90.96000000    44.32000000    15.10000000
   C     87.78000000    44.03000000    13.74000000
   C     88.36000000    42.63000000    13.52000000
   C     87.26000000    41.58000000    13.40000000
   C     87.78000000    40.29000000    12.77000000
   N     86.74000000    39.38000000    12.27000000
   H     87.24000000    46.30000000    14.61000000
   H     89.55000000    45.22000000    13.20000000
   H     87.31000000    44.23000000    12.78000000
   H     87.12000000    43.95000000    14.61000000
   H     88.84000000    42.33000000    14.45000000
   H     89.11000000    42.59000000    12.74000000
   H     86.43000000    41.97000000    12.81000000
   H     86.85000000    41.43000000    14.40000000
   H     88.40000000    39.72000000    13.47000000
   H     88.35000000    40.56000000    11.88000000
   H     86.31000000    39.59000000    11.38000000
   H     87.29000000    38.54000000    12.14000000
   H     86.08000000    39.16000000    13.00000000
   N     89.42000000    44.91000000    16.46000000
   C     90.22000000    44.79000000    17.66000000
   C     90.14000000    43.41000000    18.30000000
   O     89.46000000    43.16000000    19.29000000
   C     89.82000000    45.88000000    18.65000000
   C     88.37000000    46.00000000    19.10000000
   O     88.05000000    46.76000000    20.04000000
   O     87.48000000    45.32000000    18.55000000
   H     88.46000000    45.22000000    16.56000000
   H     91.28000000    45.05000000    17.55000000
   H     90.15000000    46.83000000    18.24000000
   H     90.35000000    45.67000000    19.58000000
   N     90.73000000    42.36000000    17.72000000
   C     90.48000000    40.95000000    17.94000000
   C     89.28000000    40.37000000    17.19000000
   O     88.40000000    41.17000000    16.87000000
   H     91.38000000    42.65000000    17.00000000
   H     90.42000000    40.73000000    19.01000000
   H     91.39000000    40.41000000    17.70000000
   N     89.15000000    39.05000000    17.04000000
   C     90.14000000    38.08000000    17.44000000
   C     90.02000000    37.76000000    18.93000000
   O     88.97000000    38.04000000    19.51000000
   C     90.14000000    36.90000000    16.48000000
   C     90.27000000    37.24000000    15.00000000
   N     89.24000000    36.88000000    14.23000000
   O     91.26000000    37.84000000    14.59000000
   H     88.34000000    38.73000000    16.53000000
   H     91.17000000    38.45000000    17.34000000
   H     89.13000000    36.49000000    16.58000000
   H     90.85000000    36.16000000    16.85000000
   H     88.53000000    36.34000000    14.72000000
   H     89.42000000    36.90000000    13.24000000
   N     91.02000000    37.19000000    19.59000000
   C     92.39000000    36.87000000    19.23000000
   C     93.31000000    38.07000000    19.43000000
   O     93.11000000    39.11000000    18.81000000
   H     90.76000000    36.91000000    20.52000000
   H     92.41000000    36.81000000    18.14000000
   H     92.79000000    36.02000000    19.78000000
   N     94.22000000    37.98000000    20.41000000
   C     94.91000000    39.11000000    20.99000000
   C     96.39000000    38.82000000    21.21000000
   O     96.80000000    38.02000000    22.04000000
   C     94.33000000    39.43000000    22.36000000
   C     92.82000000    39.57000000    22.42000000
   C     92.11000000    40.59000000    21.76000000
   C     92.10000000    38.49000000    22.93000000
   C     90.71000000    40.60000000    21.79000000
   C     90.70000000    38.53000000    22.95000000
   C     89.95000000    39.58000000    22.40000000
   O     88.59000000    39.54000000    22.52000000
   H     94.24000000    37.10000000    20.90000000
   H     94.86000000    40.03000000    20.40000000
   H     94.86000000    40.32000000    22.71000000
   H     94.57000000    38.57000000    22.98000000
   H     92.60000000    41.30000000    21.12000000
   H     92.62000000    37.65000000    23.37000000
   H     90.17000000    41.41000000    21.32000000
   H     90.18000000    37.72000000    23.45000000
   H     88.28000000    38.80000000    23.05000000
   N     97.20000000    39.53000000    20.42000000
   C     98.58000000    39.15000000    20.17000000
   C     99.53000000    40.32000000    20.01000000
   O    100.73000000    40.08000000    20.12000000
   C     98.68000000    38.15000000    19.02000000
   C     98.06000000    36.78000000    19.24000000
   C     98.30000000    38.73000000    17.66000000
   C     98.77000000    35.83000000    20.20000000
   H     96.78000000    40.07000000    19.68000000
   H     99.00000000    38.68000000    21.05000000
   H     99.74000000    37.90000000    19.04000000
   H     98.08000000    36.18000000    18.33000000
   H     97.05000000    36.79000000    19.66000000
   H     98.65000000    39.76000000    17.65000000
   H     98.72000000    38.13000000    16.84000000
   H     97.22000000    38.76000000    17.66000000
   H     99.55000000    36.43000000    20.68000000
   H     98.03000000    35.36000000    20.85000000
   H     99.18000000    35.05000000    19.57000000
   N     99.09000000    41.57000000    19.81000000
   C     99.96000000    42.62000000    19.33000000
   C     99.55000000    43.29000000    18.02000000
   O    100.38000000    44.00000000    17.46000000
   C    100.13000000    43.70000000    20.40000000
   O     98.96000000    44.47000000    20.59000000
   H     98.11000000    41.74000000    19.96000000
   H    100.98000000    42.32000000    19.11000000
   H    100.92000000    44.40000000    20.10000000
   H    100.52000000    43.21000000    21.28000000
   H     98.16000000    43.98000000    20.38000000
   N     98.37000000    42.97000000    17.48000000
   C     97.83000000    43.68000000    16.34000000
   C     97.26000000    45.06000000    16.65000000
   O     96.33000000    45.43000000    15.94000000
   C     96.93000000    42.79000000    15.49000000
   H     97.74000000    42.40000000    18.02000000
   H     98.62000000    44.00000000    15.65000000
   H     96.62000000    43.26000000    14.56000000
   H     97.52000000    41.92000000    15.18000000
   H     95.96000000    42.59000000    15.95000000
   N     97.84000000    45.80000000    17.60000000
   C     97.36000000    47.07000000    18.10000000
   C     95.96000000    47.10000000    18.71000000
   O     95.29000000    48.12000000    18.87000000
   C     97.69000000    48.18000000    17.11000000
   H     98.61000000    45.43000000    18.14000000
   H     97.99000000    47.27000000    18.97000000
   H     97.77000000    49.17000000    17.56000000
   H     98.75000000    48.09000000    16.87000000
   H     96.93000000    48.18000000    16.33000000
   N     95.43000000    45.96000000    19.17000000
   C     94.18000000    45.70000000    19.85000000
   C     94.21000000    45.76000000    21.37000000
   O     93.25000000    46.18000000    22.01000000
   C     93.66000000    44.38000000    19.29000000
   C     94.28000000    43.08000000    19.80000000
   C     95.76000000    42.84000000    19.57000000
   O     96.61000000    43.63000000    20.04000000
   O     96.16000000    41.76000000    19.09000000
   H     96.09000000    45.19000000    19.17000000
   H     93.63000000    46.54000000    19.41000000
   H     93.64000000    44.39000000    18.20000000
   H     92.63000000    44.36000000    19.64000000
   H     93.78000000    42.18000000    19.42000000
   H     94.18000000    43.02000000    20.88000000
   N     95.35000000    45.47000000    22.00000000
   C     95.52000000    45.63000000    23.44000000
   H     96.17200000    46.48100000    23.63600000
   H     94.54900000    45.80300000    23.90400000
   H     95.96700000    44.72700000    23.85600000
   H     96.17000000    45.24000000    21.47000000
  Ca     85.68000000    46.01000000    20.77000000
   O     85.28000000    46.90000000    18.34000000
   H     84.58000000    46.59000000    17.76000000
   H     86.08000000    46.54000000    17.95000000
   O     84.36000000    45.26000000    22.83000000
   H     83.44000000    45.34000000    23.10000000
   H     84.84000000    45.15000000    23.65000000
   O     83.70000000    44.45000000    19.94000000
   H     83.30000000    44.68000000    19.10000000
   H     82.95000000    44.20000000    20.49000000
   O     87.11000000    46.29000000    23.19000000
   H     87.02000000    45.79000000    24.00000000
   H     87.73000000    46.98000000    23.40000000
   O     86.51000000    43.59000000    20.97000000
   H     87.15000000    43.52000000    20.27000000
   H     86.28000000    42.68000000    21.18000000

Ca 1.00



