%chk=loop2.holoCaM.run37.water1.chk
%nprocshared=20
%mem=10GB
%nosave
#b3lyp/svp scf=(tight,noincore,xqc) Test 
#IOP(5/87=12) Density=Current Pop=(MK,readradii) iop(6/33=2) iop(6/42=6)

loop2.holoCaM.run37.water1 

   -2  1 
   C     64.75000000    72.90000000   111.44000000
   C     65.55000000    72.37000000   112.63000000
   O     66.75000000    72.21000000   112.46000000
   H     63.85100000    73.40000000   111.80100000
   H     65.35900000    73.60900000   110.87900000
   H     64.46800000    72.07000000   110.79200000
   N     65.03000000    72.05000000   113.81000000
   C     65.71000000    71.68000000   115.04000000
   C     66.06000000    70.20000000   114.99000000
   O     65.17000000    69.36000000   114.88000000
   C     64.85000000    71.95000000   116.27000000
   C     65.44000000    71.47000000   117.58000000
   O     66.67000000    71.22000000   117.55000000
   O     64.68000000    71.36000000   118.57000000
   H     64.07000000    72.35000000   113.93000000
   H     66.62000000    72.27000000   115.03000000
   H     63.91000000    71.40000000   116.15000000
   H     64.61000000    73.01000000   116.34000000
   N     67.37000000    69.90000000   115.01000000
   C     67.82000000    68.53000000   114.94000000
   C     68.22000000    67.93000000   116.28000000
   O     68.94000000    66.94000000   116.34000000
   C     68.92000000    68.47000000   113.88000000
   H     68.15000000    70.54000000   114.94000000
   H     67.00000000    67.88000000   114.61000000
   H     69.72000000    69.15000000   114.18000000
   H     69.36000000    67.49000000   113.69000000
   H     68.62000000    68.95000000   112.95000000
   N     67.87000000    68.50000000   117.43000000
   C     68.12000000    67.92000000   118.74000000
   C     66.85000000    67.43000000   119.42000000
   O     66.82000000    66.72000000   120.42000000
   C     68.93000000    68.82000000   119.66000000
   C     70.14000000    69.50000000   119.04000000
   O     69.95000000    70.68000000   118.69000000
   O     71.17000000    68.81000000   118.84000000
   H     67.49000000    69.43000000   117.48000000
   H     68.73000000    67.01000000   118.68000000
   H     69.31000000    68.29000000   120.54000000
   H     68.42000000    69.72000000   119.99000000
   N     65.72000000    67.97000000   118.95000000
   C     64.53000000    68.09000000   119.76000000
   C     64.74000000    68.87000000   121.06000000
   O     64.51000000    68.31000000   122.13000000
   H     65.79000000    68.50000000   118.09000000
   H     64.07000000    67.12000000   119.91000000
   H     63.79000000    68.62000000   119.16000000
   N     65.37000000    70.04000000   120.97000000
   C     65.62000000    70.89000000   122.12000000
   C     64.89000000    72.23000000   122.07000000
   O     64.76000000    72.83000000   123.13000000
   C     67.12000000    71.12000000   122.30000000
   C     67.86000000    72.10000000   121.40000000
   N     68.95000000    72.66000000   121.92000000
   O     67.41000000    72.39000000   120.29000000
   H     65.39000000    70.48000000   120.07000000
   H     65.30000000    70.41000000   123.04000000
   H     67.74000000    70.24000000   122.48000000
   H     67.10000000    71.54000000   123.31000000
   H     69.28000000    72.35000000   122.82000000
   H     69.40000000    73.41000000   121.41000000
   N     64.27000000    72.64000000   120.96000000
   C     63.37000000    73.77000000   120.96000000
   C     64.11000000    75.09000000   120.82000000
   O     63.48000000    76.13000000   121.00000000
   H     64.29000000    72.05000000   120.14000000
   H     62.72000000    73.73000000   121.83000000
   H     62.70000000    73.72000000   120.10000000
   N     65.36000000    75.12000000   120.34000000
   C     65.97000000    76.33000000   119.84000000
   C     66.69000000    76.06000000   118.53000000
   O     67.19000000    74.95000000   118.32000000
   C     66.99000000    76.93000000   120.82000000
   C     66.34000000    77.66000000   121.98000000
   O     67.90000000    76.03000000   121.40000000
   H     65.77000000    74.24000000   120.08000000
   H     65.20000000    77.06000000   119.61000000
   H     67.65000000    77.69000000   120.42000000
   H     67.43000000    75.52000000   122.06000000
   H     67.02000000    77.76000000   122.83000000
   H     65.87000000    78.55000000   121.55000000
   H     65.60000000    76.97000000   122.38000000
   N     67.00000000    77.08000000   117.72000000
   C     67.74000000    77.01000000   116.48000000
   C     69.21000000    77.30000000   116.71000000
   O     69.59000000    78.30000000   117.32000000
   C     67.09000000    77.94000000   115.45000000
   C     65.82000000    77.31000000   114.90000000
   C     67.98000000    78.21000000   114.24000000
   C     64.89000000    78.26000000   114.15000000
   H     66.67000000    78.00000000   117.97000000
   H     67.78000000    75.98000000   116.14000000
   H     66.87000000    78.94000000   115.85000000
   H     65.22000000    76.88000000   115.70000000
   H     66.04000000    76.46000000   114.26000000
   H     68.86000000    78.78000000   114.54000000
   H     68.28000000    77.23000000   113.87000000
   H     67.49000000    78.82000000   113.47000000
   H     65.35000000    78.86000000   113.37000000
   H     64.00000000    77.70000000   113.86000000
   H     64.45000000    78.90000000   114.92000000
   N     70.08000000    76.38000000   116.27000000
   C     71.50000000    76.64000000   116.19000000
   C     71.90000000    77.31000000   114.89000000
   O     71.10000000    77.25000000   113.96000000
   C     72.28000000    75.35000000   116.41000000
   C     71.84000000    74.55000000   117.63000000
   O     71.10000000    73.55000000   117.49000000
   O     72.05000000    75.08000000   118.74000000
   H     69.81000000    75.61000000   115.67000000
   H     71.77000000    77.32000000   117.00000000
   H     73.35000000    75.54000000   116.52000000
   H     72.21000000    74.66000000   115.57000000
   N     73.11000000    77.85000000   114.75000000
   C     73.59000000    78.39000000   113.49000000
   C     73.47000000    77.46000000   112.29000000
   O     72.88000000    77.89000000   111.30000000
   C     75.05000000    78.79000000   113.62000000
   C     75.56000000    79.55000000   112.42000000
   C     74.87000000    80.62000000   111.85000000
   C     76.80000000    79.20000000   111.86000000
   C     75.27000000    81.14000000   110.62000000
   C     77.30000000    79.89000000   110.74000000
   C     76.54000000    80.87000000   110.09000000
   H     73.80000000    77.81000000   115.49000000
   H     72.98000000    79.27000000   113.30000000
   H     75.72000000    77.96000000   113.84000000
   H     75.08000000    79.43000000   114.51000000
   H     73.98000000    80.94000000   112.38000000
   H     77.33000000    78.41000000   112.36000000
   H     74.63000000    81.83000000   110.08000000
   H     78.21000000    79.51000000   110.31000000
   H     76.92000000    81.21000000   109.14000000
   N     73.90000000    76.20000000   112.30000000
   C     73.65000000    75.27000000   111.22000000
   C     72.19000000    74.97000000   110.89000000
   O     71.81000000    74.64000000   109.77000000
   C     74.50000000    74.03000000   111.47000000
   C     74.81000000    74.12000000   112.96000000
   C     74.95000000    75.63000000   113.13000000
   H     74.12000000    75.76000000   110.36000000
   H     74.12000000    73.08000000   111.08000000
   H     75.39000000    74.20000000   110.87000000
   H     73.84000000    73.84000000   113.39000000
   H     75.66000000    73.54000000   113.31000000
   H     74.83000000    75.78000000   114.20000000
   H     75.88000000    75.97000000   112.67000000
   N     71.25000000    75.20000000   111.81000000
   C     69.83000000    75.04000000   111.63000000
   C     69.17000000    76.29000000   111.07000000
   O     68.17000000    76.29000000   110.35000000
   C     69.23000000    74.53000000   112.94000000
   C     69.83000000    73.27000000   113.55000000
   C     69.35000000    73.06000000   114.98000000
   O     68.90000000    73.99000000   115.69000000
   O     69.38000000    71.92000000   115.51000000
   H     71.56000000    75.71000000   112.63000000
   H     69.50000000    74.30000000   110.89000000
   H     68.15000000    74.52000000   112.81000000
   H     69.35000000    75.37000000   113.62000000
   H     70.90000000    73.45000000   113.50000000
   H     69.60000000    72.43000000   112.90000000
   N     69.77000000    77.47000000   111.21000000
   C     69.55000000    78.76000000   110.59000000
   H     68.70000000    79.25100000   111.06500000
   H     70.44000000    79.37800000   110.71000000
   H     69.34300000    78.62300000   109.52900000
   H     70.53000000    77.47000000   111.88000000
  Ca     68.67000000    72.80000000   117.96600000
   O     69.67000000    74.48000000   119.92600000
   H     69.12000000    75.21000000   120.19600000
   H     70.53000000    74.86000000   119.77600000

Ca 1.00



