%chk=loop2.apoCaM-CA-Ng.Init31.run28.water4.chk
%nprocshared=20
%mem=10GB
%nosave
#b3lyp/svp scf=(tight,noincore,xqc) Test 
#IOP(5/87=12) Density=Current Pop=(MK,readradii) iop(6/33=2) iop(6/42=6)

loop2.apoCaM-CA-Ng.Init31.run28.water4 

   -2  1 
   C     88.23000000    67.42000000    65.77000000
   C     86.71000000    67.33000000    65.83000000
   O     86.29000000    66.33000000    66.41000000
   H     88.66300000    66.74500000    66.50800000
   H     88.57200000    67.13700000    64.77500000
   H     88.54300000    68.44200000    65.98600000
   N     85.85000000    68.21000000    65.31000000
   C     86.02000000    69.62000000    65.02000000
   C     85.18000000    69.95000000    63.80000000
   O     83.98000000    69.69000000    63.74000000
   C     85.69000000    70.46000000    66.25000000
   C     84.52000000    70.07000000    67.15000000
   O     84.43000000    70.33000000    68.37000000
   O     83.69000000    69.28000000    66.66000000
   H     84.89000000    67.91000000    65.42000000
   H     87.03000000    69.85000000    64.69000000
   H     85.49000000    71.48000000    65.94000000
   H     86.59000000    70.40000000    66.87000000
   N     85.75000000    70.68000000    62.83000000
   C     85.00000000    71.27000000    61.74000000
   C     84.08000000    72.43000000    62.09000000
   O     84.27000000    73.56000000    61.66000000
   C     84.48000000    70.26000000    60.71000000
   H     86.75000000    70.85000000    62.84000000
   H     85.83000000    71.72000000    61.21000000
   H     83.51000000    69.92000000    61.07000000
   H     84.37000000    70.81000000    59.77000000
   H     85.13000000    69.39000000    60.68000000
   N     83.14000000    72.19000000    63.01000000
   C     82.28000000    73.08000000    63.76000000
   C     82.25000000    72.72000000    65.23000000
   O     82.24000000    71.53000000    65.56000000
   C     80.84000000    73.11000000    63.24000000
   C     80.12000000    71.77000000    63.19000000
   O     80.77000000    70.71000000    63.17000000
   O     78.88000000    71.69000000    62.99000000
   H     82.99000000    71.23000000    63.26000000
   H     82.58000000    74.13000000    63.69000000
   H     80.86000000    73.51000000    62.23000000
   H     80.24000000    73.74000000    63.90000000
   N     82.29000000    73.70000000    66.14000000
   C     82.16000000    73.37000000    67.55000000
   C     80.69000000    73.27000000    67.92000000
   O     79.94000000    74.24000000    67.80000000
   H     82.32000000    74.67000000    65.87000000
   H     82.67000000    74.10000000    68.18000000
   H     82.64000000    72.43000000    67.83000000
   N     80.15000000    72.12000000    68.33000000
   C     78.75000000    71.85000000    68.61000000
   C     78.43000000    71.64000000    70.09000000
   O     77.28000000    71.44000000    70.46000000
   C     78.31000000    70.65000000    67.78000000
   C     78.48000000    70.73000000    66.27000000
   N     77.81000000    71.64000000    65.56000000
   O     79.44000000    70.15000000    65.78000000
   H     80.82000000    71.46000000    68.69000000
   H     78.23000000    72.71000000    68.19000000
   H     77.24000000    70.49000000    67.92000000
   H     78.80000000    69.75000000    68.15000000
   H     77.12000000    72.26000000    65.95000000
   H     78.02000000    71.76000000    64.58000000
   N     79.41000000    71.54000000    71.00000000
   C     79.36000000    71.13000000    72.39000000
   C     79.31000000    69.62000000    72.57000000
   O     79.10000000    68.89000000    71.61000000
   H     80.25000000    71.93000000    70.61000000
   H     78.51000000    71.60000000    72.89000000
   H     80.28000000    71.52000000    72.83000000
   N     79.44000000    69.10000000    73.79000000
   C     79.68000000    69.86000000    75.00000000
   C     80.62000000    69.22000000    76.00000000
   O     80.95000000    69.87000000    76.99000000
   C     78.38000000    70.02000000    75.79000000
   C     77.53000000    71.20000000    75.30000000
   O     77.60000000    68.86000000    75.93000000
   H     79.32000000    68.10000000    73.85000000
   H     80.16000000    70.81000000    74.75000000
   H     78.59000000    70.26000000    76.83000000
   H     77.61000000    68.71000000    76.88000000
   H     78.10000000    72.11000000    75.11000000
   H     77.09000000    70.83000000    74.38000000
   H     76.76000000    71.46000000    76.03000000
   N     81.13000000    68.02000000    75.72000000
   C     81.98000000    67.19000000    76.55000000
   C     81.15000000    66.82000000    77.77000000
   O     81.15000000    67.47000000    78.81000000
   C     83.35000000    67.78000000    76.89000000
   C     83.87000000    68.36000000    75.59000000
   C     84.30000000    66.69000000    77.37000000
   C     83.96000000    67.54000000    74.30000000
   H     80.69000000    67.71000000    74.86000000
   H     82.22000000    66.26000000    76.04000000
   H     83.35000000    68.54000000    77.67000000
   H     84.86000000    68.82000000    75.69000000
   H     83.27000000    69.24000000    75.34000000
   H     85.23000000    67.26000000    77.45000000
   H     84.08000000    66.24000000    78.34000000
   H     84.41000000    65.88000000    76.65000000
   H     84.81000000    66.86000000    74.29000000
   H     83.09000000    66.88000000    74.26000000
   H     83.90000000    68.17000000    73.41000000
   N     80.48000000    65.67000000    77.72000000
   C     80.49000000    64.67000000    76.67000000
   C     81.62000000    63.65000000    76.80000000
   O     82.27000000    63.46000000    75.78000000
   C     79.13000000    63.99000000    76.54000000
   C     78.39000000    63.59000000    77.80000000
   O     78.69000000    64.01000000    78.93000000
   O     77.52000000    62.70000000    77.64000000
   H     79.89000000    65.49000000    78.52000000
   H     80.59000000    65.15000000    75.70000000
   H     79.11000000    63.19000000    75.80000000
   H     78.47000000    64.68000000    76.02000000
   N     81.71000000    63.07000000    77.99000000
   C     82.70000000    62.07000000    78.35000000
   C     82.18000000    60.64000000    78.26000000
   O     80.97000000    60.45000000    78.38000000
   C     83.25000000    62.39000000    79.74000000
   C     82.31000000    62.37000000    80.92000000
   C     81.57000000    63.54000000    81.13000000
   C     82.22000000    61.21000000    81.69000000
   C     80.74000000    63.56000000    82.25000000
   C     81.31000000    61.21000000    82.75000000
   C     80.56000000    62.37000000    82.96000000
   H     80.94000000    63.21000000    78.63000000
   H     83.47000000    62.12000000    77.58000000
   H     83.68000000    63.39000000    79.63000000
   H     84.05000000    61.68000000    79.94000000
   H     81.81000000    64.43000000    80.56000000
   H     82.79000000    60.35000000    81.38000000
   H     80.20000000    64.48000000    82.42000000
   H     81.15000000    60.31000000    83.34000000
   H     79.92000000    62.45000000    83.83000000
   N     82.95000000    59.55000000    78.14000000
   C     84.40000000    59.46000000    78.14000000
   C     84.93000000    60.00000000    76.82000000
   O     84.23000000    60.36000000    75.88000000
   C     84.60000000    57.97000000    78.38000000
   C     83.48000000    57.30000000    77.58000000
   C     82.34000000    58.27000000    77.86000000
   H     84.86000000    60.02000000    78.95000000
   H     85.51000000    57.52000000    77.98000000
   H     84.48000000    57.73000000    79.43000000
   H     83.76000000    57.19000000    76.54000000
   H     83.24000000    56.36000000    78.07000000
   H     81.75000000    58.31000000    76.94000000
   H     81.72000000    58.01000000    78.72000000
   N     86.26000000    59.91000000    76.72000000
   C     87.10000000    60.11000000    75.56000000
   C     88.40000000    60.87000000    75.77000000
   O     89.43000000    60.59000000    75.16000000
   C     87.33000000    58.77000000    74.86000000
   C     87.55000000    57.42000000    75.54000000
   C     88.64000000    57.48000000    76.60000000
   O     89.61000000    56.71000000    76.43000000
   O     88.53000000    58.29000000    77.55000000
   H     86.75000000    59.60000000    77.55000000
   H     86.54000000    60.74000000    74.87000000
   H     88.09000000    58.78000000    74.09000000
   H     86.35000000    58.60000000    74.41000000
   H     87.69000000    56.68000000    74.75000000
   H     86.60000000    57.14000000    75.99000000
   N     88.54000000    61.93000000    76.57000000
   C     87.64000000    62.55000000    77.52000000
   H     86.68400000    62.02700000    77.50900000
   H     88.07200000    62.49500000    78.51900000
   H     87.48500000    63.59400000    77.24700000
   H     89.46000000    62.34000000    76.59000000
  Ca     81.70000000    69.05000000    64.91000000
   O     79.54000000    67.21000000    64.53000000
   H     79.28000000    66.58000000    65.20000000
   H     79.20000000    66.85000000    63.71000000
   O     82.00000000    67.72000000    62.48000000
   H     81.59000000    67.52000000    61.64000000
   H     82.88000000    67.34000000    62.41000000
   O     80.90000000    68.06000000    67.39000000
   H     81.63000000    68.14000000    68.00000000
   H     80.61000000    67.15000000    67.49000000
   O     82.98000000    66.62000000    65.13000000
   H     82.89000000    65.89000000    64.51000000
   H     83.35000000    66.22000000    65.92000000

Ca 1.00



