%chk=loop2.apoCaM-CA-Ng.Init31.run70.water7.chk
%nprocshared=20
%mem=10GB
%nosave
#b3lyp/svp scf=(tight,noincore,xqc) Test 
#IOP(5/87=12) Density=Current Pop=(MK,readradii) iop(6/33=2) iop(6/42=6)

loop2.apoCaM-CA-Ng.Init31.run70.water7 

   -2  1 
   C     83.64000000    62.73000000     8.13000000
   C     83.60000000    61.38000000     8.85000000
   O     84.14000000    61.32000000     9.94000000
   H     84.64900000    63.13800000     8.18100000
   H     83.35600000    62.59400000     7.08700000
   H     82.94500000    63.41900000     8.61000000
   N     83.08000000    60.25000000     8.37000000
   C     82.43000000    60.09000000     7.08000000
   C     83.26000000    59.23000000     6.13000000
   O     83.88000000    58.26000000     6.56000000
   C     81.05000000    59.44000000     7.21000000
   C     80.82000000    58.23000000     8.09000000
   O     80.74000000    58.37000000     9.33000000
   O     80.70000000    57.06000000     7.65000000
   H     83.18000000    59.40000000     8.90000000
   H     82.28000000    61.01000000     6.51000000
   H     80.59000000    59.37000000     6.22000000
   H     80.48000000    60.20000000     7.75000000
   N     83.34000000    59.56000000     4.84000000
   C     83.85000000    58.78000000     3.74000000
   C     82.97000000    57.61000000     3.29000000
   O     81.97000000    57.18000000     3.87000000
   C     85.29000000    58.35000000     3.98000000
   H     82.75000000    60.32000000     4.55000000
   H     83.87000000    59.45000000     2.88000000
   H     85.83000000    59.08000000     4.59000000
   H     85.25000000    57.35000000     4.42000000
   H     85.86000000    58.38000000     3.05000000
   N     83.33000000    57.01000000     2.16000000
   C     82.60000000    55.91000000     1.55000000
   C     83.02000000    54.62000000     2.23000000
   O     84.22000000    54.49000000     2.49000000
   C     82.62000000    55.75000000     0.03000000
   C     83.97000000    55.56000000    -0.64000000
   O     83.88000000    55.37000000    -1.88000000
   O     85.05000000    55.81000000    -0.06000000
   H     84.17000000    57.33000000     1.70000000
   H     81.52000000    56.01000000     1.67000000
   H     82.41000000    56.71000000    -0.45000000
   H     81.91000000    55.00000000    -0.33000000
   N     82.05000000    53.71000000     2.28000000
   C     82.28000000    52.39000000     2.83000000
   C     81.03000000    51.53000000     2.73000000
   O     79.95000000    52.08000000     2.51000000
   H     81.25000000    53.91000000     1.70000000
   H     82.53000000    52.46000000     3.89000000
   H     83.09000000    51.86000000     2.32000000
   N     81.17000000    50.22000000     2.95000000
   C     80.11000000    49.23000000     2.99000000
   C     79.35000000    49.22000000     4.31000000
   O     78.23000000    48.74000000     4.42000000
   C     80.69000000    47.84000000     2.72000000
   C     79.74000000    46.65000000     2.68000000
   N     80.30000000    45.44000000     2.70000000
   O     78.55000000    46.73000000     2.40000000
   H     82.08000000    50.04000000     3.33000000
   H     79.31000000    49.35000000     2.26000000
   H     81.34000000    47.54000000     3.54000000
   H     81.25000000    47.96000000     1.80000000
   H     81.30000000    45.35000000     2.58000000
   H     79.75000000    44.60000000     2.70000000
   N     79.94000000    49.81000000     5.36000000
   C     79.57000000    49.72000000     6.75000000
   C     79.83000000    48.29000000     7.22000000
   O     80.70000000    47.63000000     6.68000000
   H     80.79000000    50.33000000     5.23000000
   H     78.54000000    50.02000000     6.96000000
   H     80.20000000    50.47000000     7.24000000
   N     79.21000000    47.92000000     8.34000000
   C     78.23000000    48.61000000     9.16000000
   C     78.64000000    48.71000000    10.62000000
   O     77.92000000    49.27000000    11.43000000
   C     76.84000000    47.99000000     9.02000000
   C     76.11000000    48.37000000     7.73000000
   O     77.06000000    46.62000000     9.25000000
   H     79.47000000    47.00000000     8.67000000
   H     78.16000000    49.62000000     8.75000000
   H     76.25000000    48.46000000     9.80000000
   H     76.88000000    46.46000000    10.18000000
   H     76.26000000    47.72000000     6.87000000
   H     75.05000000    48.49000000     7.97000000
   H     76.48000000    49.36000000     7.48000000
   N     79.83000000    48.15000000    10.89000000
   C     80.73000000    48.36000000    12.01000000
   C     80.15000000    47.89000000    13.33000000
   O     79.30000000    48.42000000    14.04000000
   C     81.34000000    49.74000000    12.25000000
   C     81.78000000    50.37000000    10.94000000
   C     82.42000000    49.78000000    13.32000000
   C     82.75000000    49.49000000    10.14000000
   H     80.27000000    47.79000000    10.06000000
   H     81.61000000    47.74000000    11.81000000
   H     80.56000000    50.40000000    12.62000000
   H     82.17000000    51.37000000    11.13000000
   H     80.88000000    50.51000000    10.34000000
   H     82.00000000    49.58000000    14.31000000
   H     83.17000000    49.02000000    13.11000000
   H     82.91000000    50.73000000    13.56000000
   H     83.64000000    49.35000000    10.75000000
   H     82.34000000    48.54000000     9.80000000
   H     82.99000000    50.05000000     9.24000000
   N     80.62000000    46.76000000    13.87000000
   C     81.52000000    45.76000000    13.32000000
   C     82.92000000    46.13000000    13.79000000
   O     83.80000000    46.14000000    12.94000000
   C     81.12000000    44.40000000    13.89000000
   C     80.88000000    44.26000000    15.39000000
   O     80.63000000    43.08000000    15.75000000
   O     80.96000000    45.23000000    16.16000000
   H     80.49000000    46.68000000    14.87000000
   H     81.40000000    45.78000000    12.24000000
   H     81.95000000    43.77000000    13.58000000
   H     80.17000000    44.15000000    13.42000000
   N     83.17000000    46.59000000    15.02000000
   C     84.50000000    46.87000000    15.52000000
   C     85.21000000    45.61000000    16.02000000
   O     84.49000000    44.72000000    16.47000000
   C     84.44000000    47.99000000    16.55000000
   C     84.18000000    47.45000000    17.94000000
   C     82.89000000    47.52000000    18.47000000
   C     85.17000000    47.06000000    18.85000000
   C     82.66000000    47.33000000    19.84000000
   C     84.94000000    46.76000000    20.20000000
   C     83.67000000    47.01000000    20.75000000
   H     82.35000000    46.54000000    15.61000000
   H     85.04000000    47.30000000    14.68000000
   H     83.72000000    48.77000000    16.30000000
   H     85.40000000    48.51000000    16.52000000
   H     82.02000000    47.75000000    17.87000000
   H     86.21000000    47.11000000    18.56000000
   H     81.67000000    47.29000000    20.28000000
   H     85.77000000    46.54000000    20.86000000
   H     83.50000000    46.93000000    21.81000000
   N     86.54000000    45.57000000    16.02000000
   C     87.56000000    46.59000000    16.07000000
   C     87.92000000    47.02000000    14.65000000
   O     87.15000000    46.66000000    13.76000000
   C     88.75000000    46.03000000    16.85000000
   C     88.45000000    44.55000000    17.09000000
   C     87.20000000    44.30000000    16.26000000
   H     87.11000000    47.41000000    16.63000000
   H     89.64000000    46.14000000    16.23000000
   H     88.97000000    46.54000000    17.79000000
   H     89.25000000    43.87000000    16.81000000
   H     88.26000000    44.51000000    18.17000000
   H     87.52000000    43.83000000    15.33000000
   H     86.58000000    43.69000000    16.91000000
   N     88.92000000    47.88000000    14.45000000
   C     89.21000000    48.49000000    13.16000000
   C     89.45000000    50.00000000    13.17000000
   O     90.48000000    50.52000000    12.75000000
   C     90.04000000    47.56000000    12.29000000
   C     90.31000000    47.84000000    10.82000000
   C     91.57000000    47.12000000    10.35000000
   O     91.63000000    45.88000000    10.24000000
   O     92.46000000    47.83000000     9.83000000
   H     89.53000000    48.20000000    15.19000000
   H     88.24000000    48.42000000    12.66000000
   H     89.54000000    46.59000000    12.38000000
   H     91.01000000    47.44000000    12.79000000
   H     90.44000000    48.90000000    10.60000000
   H     89.45000000    47.46000000    10.28000000
   N     88.52000000    50.86000000    13.58000000
   C     87.44000000    50.70000000    14.54000000
   H     86.54400000    50.35600000    14.02400000
   H     87.72800000    49.96700000    15.29300000
   H     87.23700000    51.65600000    15.02200000
   H     88.85000000    51.80000000    13.49000000
  Ca     87.51000000    56.37000000    -0.19800000
   O     87.14000000    53.86000000    -1.30800000
   H     87.40000000    53.07000000    -1.77800000
   H     86.19000000    53.90000000    -1.40800000
   O     89.22000000    54.78000000     1.32000000
   H     89.40000000    55.01000000     2.23000000
   H     89.88000000    54.12000000     1.10000000
   O     88.97000000    58.13000000     1.20000000
   H     89.87000000    58.21000000     1.49000000
   H     88.53000000    58.90000000     1.56000000
   O     89.91000000    56.32000000    -1.73800000
   H     90.35000000    55.89000000    -2.47800000
   H     90.16000000    57.24000000    -1.81800000
   O     86.55000000    58.88000000    -0.48800000
   H     85.71000000    58.72000000    -0.91800000
   H     86.37000000    59.57000000     0.15200000
   O     86.70000000    55.99000000     2.28000000
   H     86.70000000    55.70000000     3.19000000
   H     85.89000000    55.63000000     1.91000000
   O     87.06000000    56.86000000    -2.74800000
   H     86.46000000    56.35000000    -3.29800000
   H     87.57000000    57.39000000    -3.37800000

Ca 1.00



