%chk=loop3.holoCaM-CaMKII.run13.water2.chk
%nprocshared=20
%mem=10GB
%nosave
#b3lyp/svp scf=(tight,noincore,xqc) Test 
#IOP(5/87=12) Density=Current Pop=(MK,readradii) iop(6/33=2) iop(6/42=6)

loop3.holoCaM-CaMKII.run13.water2 

   0  1 
   C     69.58000000    50.54000000    29.42000000
   C     68.88000000    49.32000000    30.00000000
   O     69.36000000    48.23000000    29.70000000
   H     70.56200000    50.25100000    29.04500000
   H     68.98500000    50.94700000    28.60300000
   H     69.69700000    51.29600000    30.19700000
   N     67.79000000    49.30000000    30.77000000
   C     67.09000000    48.11000000    31.21000000
   C     66.07000000    47.63000000    30.19000000
   O     65.05000000    48.29000000    30.00000000
   C     66.47000000    48.40000000    32.57000000
   C     65.63000000    47.20000000    32.99000000
   O     64.76000000    47.45000000    33.85000000
   O     65.79000000    46.05000000    32.52000000
   H     67.46000000    50.18000000    31.12000000
   H     67.86000000    47.35000000    31.37000000
   H     66.00000000    49.38000000    32.59000000
   H     67.22000000    48.53000000    33.34000000
   N     66.20000000    46.46000000    29.56000000
   C     65.39000000    46.11000000    28.41000000
   C     64.18000000    45.21000000    28.62000000
   O     63.39000000    45.11000000    27.69000000
   C     66.25000000    45.46000000    27.34000000
   C     65.71000000    45.68000000    25.93000000
   C     66.72000000    45.77000000    24.79000000
   C     67.14000000    44.42000000    24.23000000
   N     65.98000000    43.64000000    23.79000000
   H     66.90000000    45.77000000    29.80000000
   H     65.01000000    47.03000000    27.97000000
   H     66.27000000    44.38000000    27.44000000
   H     67.21000000    45.97000000    27.36000000
   H     65.24000000    46.66000000    25.84000000
   H     64.89000000    45.03000000    25.63000000
   H     67.64000000    46.27000000    25.10000000
   H     66.28000000    46.32000000    23.96000000
   H     67.64000000    43.93000000    25.06000000
   H     67.89000000    44.56000000    23.45000000
   H     65.37000000    43.48000000    24.58000000
   H     65.37000000    44.03000000    23.09000000
   H     66.16000000    42.68000000    23.52000000
   N     63.96000000    44.76000000    29.86000000
   C     62.68000000    44.18000000    30.24000000
   C     61.94000000    44.88000000    31.37000000
   O     60.84000000    44.47000000    31.74000000
   C     62.97000000    42.73000000    30.61000000
   C     64.01000000    42.45000000    31.69000000
   O     64.01000000    41.27000000    32.08000000
   O     64.66000000    43.35000000    32.26000000
   H     64.65000000    44.93000000    30.57000000
   H     62.06000000    44.22000000    29.34000000
   H     63.22000000    42.14000000    29.72000000
   H     62.07000000    42.24000000    30.96000000
   N     62.56000000    45.85000000    32.03000000
   C     61.87000000    46.60000000    33.07000000
   C     61.84000000    46.02000000    34.48000000
   O     61.16000000    46.51000000    35.38000000
   H     63.51000000    46.14000000    31.82000000
   H     60.89000000    46.86000000    32.68000000
   H     62.37000000    47.57000000    33.10000000
   N     62.79000000    45.13000000    34.78000000
   C     62.94000000    44.30000000    35.96000000
   C     63.64000000    45.06000000    37.08000000
   O     63.68000000    44.61000000    38.22000000
   C     63.57000000    42.94000000    35.65000000
   C     65.08000000    42.82000000    35.56000000
   N     65.62000000    41.64000000    35.85000000
   O     65.81000000    43.76000000    35.24000000
   H     63.32000000    44.87000000    33.96000000
   H     62.01000000    44.08000000    36.47000000
   H     63.24000000    42.55000000    34.69000000
   H     63.18000000    42.25000000    36.40000000
   H     64.99000000    40.96000000    36.25000000
   H     66.61000000    41.43000000    35.82000000
   N     64.28000000    46.17000000    36.71000000
   C     65.03000000    46.99000000    37.64000000
   C     66.54000000    47.13000000    37.48000000
   O     67.13000000    47.89000000    38.25000000
   H     64.28000000    46.47000000    35.75000000
   H     65.02000000    46.53000000    38.63000000
   H     64.65000000    48.01000000    37.63000000
   N     67.13000000    46.24000000    36.67000000
   C     68.55000000    46.04000000    36.50000000
   C     69.09000000    46.20000000    35.09000000
   O     68.43000000    45.74000000    34.16000000
   C     69.01000000    44.70000000    37.08000000
   C     68.68000000    44.36000000    38.51000000
   C     69.59000000    44.75000000    39.50000000
   C     67.44000000    43.76000000    38.80000000
   C     69.21000000    44.57000000    40.84000000
   C     67.08000000    43.65000000    40.15000000
   C     67.95000000    44.03000000    41.19000000
   O     67.56000000    44.13000000    42.49000000
   H     66.45000000    45.61000000    36.27000000
   H     69.00000000    46.88000000    37.04000000
   H     70.10000000    44.74000000    37.00000000
   H     68.66000000    43.89000000    36.45000000
   H     70.50000000    45.22000000    39.20000000
   H     66.79000000    43.31000000    38.06000000
   H     69.93000000    44.85000000    41.59000000
   H     66.11000000    43.33000000    40.48000000
   H     66.69000000    43.74000000    42.62000000
   N     70.28000000    46.75000000    34.81000000
   C     71.09000000    46.56000000    33.63000000
   C     71.96000000    45.31000000    33.68000000
   O     72.33000000    44.88000000    34.77000000
   C     71.88000000    47.83000000    33.32000000
   C     70.95000000    49.04000000    33.35000000
   C     72.74000000    47.76000000    32.06000000
   C     71.82000000    50.22000000    33.75000000
   H     70.79000000    47.21000000    35.56000000
   H     70.42000000    46.45000000    32.77000000
   H     72.60000000    47.98000000    34.11000000
   H     70.10000000    49.05000000    34.04000000
   H     70.47000000    49.14000000    32.37000000
   H     73.21000000    48.72000000    31.84000000
   H     73.55000000    47.11000000    32.38000000
   H     72.27000000    47.38000000    31.15000000
   H     72.65000000    50.27000000    33.04000000
   H     71.34000000    51.21000000    33.73000000
   H     72.23000000    50.01000000    34.73000000
   N     72.34000000    44.71000000    32.55000000
   C     73.15000000    43.52000000    32.39000000
   C     74.13000000    43.74000000    31.25000000
   O     73.89000000    44.68000000    30.49000000
   C     72.31000000    42.27000000    32.11000000
   O     71.64000000    42.27000000    30.87000000
   H     72.12000000    45.12000000    31.66000000
   H     73.61000000    43.33000000    33.36000000
   H     71.57000000    42.27000000    32.91000000
   H     72.95000000    41.38000000    32.14000000
   H     70.77000000    42.59000000    31.09000000
   N     75.15000000    42.91000000    31.05000000
   C     76.13000000    43.03000000    29.98000000
   C     75.54000000    42.92000000    28.58000000
   O     75.80000000    43.73000000    27.69000000
   C     77.20000000    41.96000000    30.16000000
   H     75.32000000    42.27000000    31.81000000
   H     76.64000000    43.98000000    30.10000000
   H     76.74000000    40.97000000    30.17000000
   H     78.00000000    41.99000000    29.41000000
   H     77.69000000    42.07000000    31.12000000
   N     74.57000000    42.04000000    28.33000000
   C     73.95000000    41.99000000    27.02000000
   C     72.92000000    43.09000000    26.82000000
   O     72.60000000    43.39000000    25.67000000
   C     73.37000000    40.60000000    26.78000000
   H     74.20000000    41.39000000    29.01000000
   H     74.70000000    42.19000000    26.25000000
   H     72.46000000    40.56000000    27.38000000
   H     73.15000000    40.50000000    25.72000000
   H     74.06000000    39.82000000    27.09000000
   N     72.34000000    43.68000000    27.87000000
   C     71.56000000    44.89000000    27.73000000
   C     72.34000000    46.19000000    27.55000000
   O     71.96000000    46.98000000    26.69000000
   C     70.65000000    45.00000000    28.96000000
   C     69.39000000    44.15000000    28.83000000
   C     68.73000000    43.86000000    30.18000000
   O     69.28000000    43.19000000    31.08000000
   O     67.58000000    44.25000000    30.47000000
   H     72.50000000    43.37000000    28.81000000
   H     70.87000000    44.81000000    26.89000000
   H     70.39000000    46.01000000    29.26000000
   H     71.25000000    44.62000000    29.79000000
   H     69.60000000    43.21000000    28.33000000
   H     68.76000000    44.66000000    28.10000000
   N     73.52000000    46.31000000    28.15000000
   C     74.44000000    47.42000000    27.99000000
   H     75.36500000    47.06200000    27.53700000
   H     73.99000000    48.17600000    27.34700000
   H     74.65800000    47.85500000    28.96500000
   H     73.82000000    45.58000000    28.79000000
  Ca     67.12000000    43.80000000    32.85000000
   O     66.68000000    41.16000000    32.43000000
   H     65.84000000    40.70000000    32.33000000
   H     67.19000000    40.89000000    31.67000000
   O     68.70000000    42.28000000    34.47000000
   H     69.43000000    42.53000000    35.04000000
   H     68.49000000    41.38000000    34.72000000

Ca 1.00



