%chk=loop1.apoCaM-CA-Ng.Init293.run97.water5.chk
%nprocshared=20
%mem=10GB
%nosave
#b3lyp/svp scf=(tight,noincore,xqc) Test 
#IOP(5/87=12) Density=Current Pop=(MK,readradii) iop(6/33=2) iop(6/42=6)

loop1.apoCaM-CA-Ng.Init293.run97.water5 

   0  1 
   C     59.62000000   109.59000000    35.18000000
   C     58.80000000   110.87000000    35.26000000
   O     58.57000000   111.59000000    34.28000000
   H     60.56800000   109.73400000    35.69800000
   H     59.07000000   108.77500000    35.65100000
   H     59.81000000   109.34400000    34.13500000
   N     58.34000000   111.21000000    36.46000000
   C     57.46000000   112.34000000    36.66000000
   C     58.08000000   113.72000000    36.77000000
   O     57.37000000   114.71000000    36.94000000
   C     56.51000000   112.00000000    37.81000000
   C     57.14000000   112.41000000    39.13000000
   O     58.29000000   112.00000000    39.40000000
   O     56.45000000   113.11000000    39.90000000
   H     58.60000000   110.67000000    37.28000000
   H     56.89000000   112.52000000    35.74000000
   H     56.33000000   110.93000000    37.81000000
   H     55.53000000   112.43000000    37.61000000
   N     59.39000000   113.89000000    36.58000000
   C     60.12000000   115.11000000    36.86000000
   C     60.48000000   115.72000000    35.51000000
   O     60.46000000   115.07000000    34.47000000
   C     61.37000000   114.83000000    37.67000000
   C     61.02000000   114.15000000    38.99000000
   C     59.96000000   114.77000000    39.90000000
   C     59.92000000   114.13000000    41.28000000
   N     60.17000000   112.68000000    41.24000000
   H     59.95000000   113.09000000    36.32000000
   H     59.52000000   115.83000000    37.42000000
   H     62.02000000   115.67000000    37.93000000
   H     62.02000000   114.10000000    37.19000000
   H     61.90000000   114.06000000    39.64000000
   H     60.64000000   113.13000000    38.90000000
   H     59.00000000   114.52000000    39.47000000
   H     60.28000000   115.81000000    39.98000000
   H     58.94000000   114.34000000    41.70000000
   H     60.70000000   114.60000000    41.88000000
   H     59.49000000   112.23000000    40.64000000
   H     61.08000000   112.47000000    40.85000000
   H     60.07000000   112.23000000    42.14000000
   N     60.69000000   117.03000000    35.39000000
   C     60.44000000   118.08000000    36.36000000
   C     59.02000000   118.54000000    36.63000000
   O     58.85000000   119.35000000    37.54000000
   C     61.30000000   119.31000000    36.07000000
   C     62.79000000   119.03000000    35.97000000
   O     63.21000000   118.22000000    35.11000000
   O     63.50000000   119.76000000    36.69000000
   H     60.94000000   117.26000000    34.44000000
   H     60.85000000   117.71000000    37.30000000
   H     61.10000000   120.18000000    36.68000000
   H     61.00000000   119.56000000    35.05000000
   N     58.03000000   118.18000000    35.82000000
   C     57.96000000   117.40000000    34.60000000
   C     56.69000000   117.66000000    33.80000000
   O     55.95000000   118.61000000    34.02000000
   H     57.24000000   118.79000000    36.00000000
   H     57.89000000   116.34000000    34.84000000
   H     58.82000000   117.60000000    33.95000000
   N     56.37000000   116.80000000    32.83000000
   C     57.01000000   115.59000000    32.35000000
   C     56.01000000   114.45000000    32.41000000
   O     54.88000000   114.53000000    31.94000000
   C     57.59000000   115.74000000    30.95000000
   C     58.84000000   116.61000000    30.92000000
   O     59.62000000   116.71000000    31.88000000
   O     59.24000000   117.04000000    29.81000000
   H     55.55000000   117.00000000    32.27000000
   H     57.77000000   115.23000000    33.05000000
   H     56.83000000   116.15000000    30.27000000
   H     57.82000000   114.75000000    30.56000000
   N     56.39000000   113.34000000    33.05000000
   C     55.55000000   112.17000000    33.26000000
   C     55.48000000   111.27000000    32.04000000
   O     54.64000000   110.37000000    32.02000000
   H     57.20000000   113.36000000    33.67000000
   H     54.54000000   112.53000000    33.47000000
   H     55.88000000   111.55000000    34.09000000
   N     56.40000000   111.53000000    31.12000000
   C     56.52000000   110.80000000    29.87000000
   C     58.00000000   110.69000000    29.55000000
   O     58.74000000   111.66000000    29.73000000
   C     55.65000000   111.55000000    28.87000000
   C     54.15000000   111.54000000    29.13000000
   O     55.74000000   110.81000000    27.67000000
   H     56.99000000   112.34000000    31.27000000
   H     56.14000000   109.78000000    29.95000000
   H     56.00000000   112.58000000    28.76000000
   H     55.69000000   111.51000000    27.01000000
   H     54.01000000   112.15000000    30.03000000
   H     53.72000000   112.07000000    28.28000000
   H     53.68000000   110.58000000    29.35000000
   N     58.44000000   109.52000000    29.08000000
   C     59.82000000   109.25000000    28.73000000
   C     59.95000000   109.04000000    27.22000000
   O     59.72000000   107.96000000    26.70000000
   C     60.35000000   108.24000000    29.74000000
   C     61.86000000   108.47000000    29.76000000
   C     60.03000000   106.76000000    29.52000000
   C     62.72000000   107.90000000    28.64000000
   H     57.90000000   108.69000000    28.92000000
   H     60.36000000   110.19000000    28.89000000
   H     60.00000000   108.53000000    30.73000000
   H     62.26000000   108.03000000    30.67000000
   H     62.12000000   109.53000000    29.78000000
   H     60.51000000   106.41000000    28.61000000
   H     60.33000000   106.24000000    30.43000000
   H     58.97000000   106.52000000    29.45000000
   H     62.54000000   108.34000000    27.66000000
   H     63.77000000   108.09000000    28.83000000
   H     62.58000000   106.83000000    28.46000000
   N     60.32000000   110.09000000    26.48000000
   C     60.40000000   110.16000000    25.04000000
   C     61.83000000   110.24000000    24.54000000
   O     62.14000000   110.24000000    23.34000000
   C     59.58000000   111.36000000    24.57000000
   C     59.93000000   112.73000000    25.17000000
   O     58.21000000   111.08000000    24.78000000
   H     60.65000000   110.86000000    27.05000000
   H     59.85000000   109.30000000    24.65000000
   H     59.73000000   111.50000000    23.50000000
   H     58.08000000   110.18000000    24.45000000
   H     60.90000000   113.05000000    24.82000000
   H     59.20000000   113.46000000    24.81000000
   H     59.84000000   112.72000000    26.26000000
   N     62.78000000   110.30000000    25.47000000
   C     64.18000000   110.66000000    25.34000000
   C     64.54000000   112.06000000    24.86000000
   O     63.71000000   112.75000000    24.29000000
   C     64.88000000   109.54000000    24.57000000
   C     64.59000000   108.15000000    25.12000000
   O     66.28000000   109.46000000    24.64000000
   H     62.40000000   110.23000000    26.41000000
   H     64.53000000   110.60000000    26.37000000
   H     64.63000000   109.54000000    23.51000000
   H     66.53000000   109.11000000    23.79000000
   H     63.53000000   107.95000000    25.29000000
   H     65.25000000   107.37000000    24.73000000
   H     65.00000000   108.14000000    26.13000000
   N     65.77000000   112.43000000    25.23000000
   C     66.38000000   113.57000000    24.58000000
   C     66.77000000   114.85000000    25.32000000
   O     67.00000000   115.90000000    24.73000000
   C     67.47000000   112.98000000    23.69000000
   C     68.64000000   112.18000000    24.25000000
   C     69.49000000   111.48000000    23.20000000
   C     70.38000000   112.40000000    22.37000000
   N     70.92000000   111.76000000    21.16000000
   H     66.34000000   111.76000000    25.73000000
   H     65.66000000   113.93000000    23.84000000
   H     67.91000000   113.78000000    23.10000000
   H     66.89000000   112.34000000    23.02000000
   H     68.27000000   111.41000000    24.93000000
   H     69.16000000   112.88000000    24.91000000
   H     68.84000000   110.90000000    22.55000000
   H     70.04000000   110.66000000    23.68000000
   H     71.22000000   112.78000000    22.93000000
   H     69.79000000   113.28000000    22.10000000
   H     71.50000000   112.39000000    20.62000000
   H     71.38000000   110.87000000    21.29000000
   H     70.17000000   111.60000000    20.51000000
   N     66.81000000   114.93000000    26.65000000
   C     66.76000000   114.05000000    27.80000000
   C     67.65000000   112.81000000    27.82000000
   O     67.14000000   111.70000000    27.71000000
   C     65.35000000   113.88000000    28.36000000
   C     65.17000000   113.19000000    29.71000000
   C     63.94000000   113.62000000    30.50000000
   O     64.03000000   114.54000000    31.34000000
   O     62.83000000   113.06000000    30.38000000
   H     66.89000000   115.91000000    26.88000000
   H     67.24000000   114.66000000    28.56000000
   H     64.64000000   113.50000000    27.63000000
   H     65.02000000   114.90000000    28.58000000
   H     66.05000000   113.47000000    30.28000000
   H     65.24000000   112.11000000    29.56000000
   N     68.96000000   113.03000000    27.94000000
   C     69.87000000   111.91000000    28.03000000
   H     70.78700000   112.22700000    28.52600000
   H     69.40500000   111.10900000    28.60400000
   H     70.10500000   111.55100000    27.02800000
   H     69.33000000   113.97000000    27.93000000
  Ca     61.54000000   114.78200000    32.06000000
   O     61.80000000   116.67200000    30.02000000
   H     60.86000000   116.78200000    29.83000000
   H     62.21000000   116.57200000    29.16000000
   O     62.87000000   113.30200000    33.95000000
   H     62.53000000   112.68200000    34.58000000
   H     63.82000000   113.29200000    34.08000000
   O     63.09000000   116.76200000    32.98000000
   H     63.08000000   117.16200000    33.85000000
   H     63.95000000   116.97200000    32.62000000
   O     60.04000000   112.47200000    32.20000000
   H     59.92000000   111.93200000    31.42000000
   H     59.51000000   112.05200000    32.87000000
   O     60.18000000   114.08200000    29.80000000
   H     59.54000000   113.38200000    29.65000000
   H     60.34000000   114.44200000    28.93000000

Ca 1.00



