%chk=loop2.holoCaM-CaMKII.run85.water2.chk
%nprocshared=20
%mem=10GB
%nosave
#b3lyp/svp scf=(tight,noincore,xqc) Test 
#IOP(5/87=12) Density=Current Pop=(MK,readradii) iop(6/33=2) iop(6/42=6)

loop2.holoCaM-CaMKII.run85.water2 

   -2  1 
   C     52.20000000    51.12000000   -22.73100000
   C     53.41000000    51.90000000   -23.22100000
   O     53.90000000    52.75000000   -22.48100000
   H     51.35700000    51.30300000   -23.39700000
   H     52.43200000    50.05500000   -22.72300000
   H     51.94300000    51.44400000   -21.72200000
   N     53.99000000    51.62000000   -24.39100000
   C     55.31000000    52.09000000   -24.77100000
   C     55.36000000    53.52000000   -25.27100000
   O     54.44000000    54.04000000   -25.91100000
   C     55.81000000    51.02000000   -25.75100000
   C     57.25000000    51.25000000   -26.16100000
   O     58.00000000    51.90000000   -25.39100000
   O     57.62000000    50.76000000   -27.25100000
   H     53.63000000    50.78000000   -24.81100000
   H     55.98000000    51.95000000   -23.92100000
   H     55.25000000    50.98000000   -26.68100000
   H     55.71000000    50.05000000   -25.26100000
   N     56.42000000    54.25000000   -24.92100000
   C     56.69000000    55.62000000   -25.29100000
   C     57.87000000    55.81000000   -26.23100000
   O     57.98000000    56.90000000   -26.78100000
   C     56.88000000    56.40000000   -23.99100000
   H     57.07000000    53.77000000   -24.31100000
   H     55.83000000    56.01000000   -25.84100000
   H     56.09000000    56.26000000   -23.25100000
   H     57.76000000    55.93000000   -23.55100000
   H     57.04000000    57.46000000   -24.16100000
   N     58.74000000    54.80000000   -26.37100000
   C     60.09000000    55.05000000   -26.82100000
   C     60.75000000    53.92000000   -27.62100000
   O     61.68000000    54.28000000   -28.33100000
   C     60.96000000    55.51000000   -25.65100000
   C     61.00000000    54.49000000   -24.52100000
   O     60.73000000    53.30000000   -24.76100000
   O     61.39000000    54.93000000   -23.41100000
   H     58.62000000    53.93000000   -25.88100000
   H     60.13000000    55.90000000   -27.49100000
   H     60.56000000    56.46000000   -25.30100000
   H     61.93000000    55.65000000   -26.12100000
   N     60.27000000    52.68000000   -27.57100000
   C     60.73000000    51.54000000   -28.35100000
   C     61.89000000    50.74000000   -27.77100000
   O     62.39000000    49.80000000   -28.39100000
   H     59.60000000    52.40000000   -26.87100000
   H     60.96000000    51.81000000   -29.38100000
   H     59.92000000    50.81000000   -28.41100000
   N     62.42000000    51.07000000   -26.59100000
   C     63.58000000    50.48000000   -25.95100000
   C     63.43000000    49.01000000   -25.59100000
   O     64.17000000    48.52000000   -24.73100000
   C     64.09000000    51.43000000   -24.87100000
   C     63.25000000    51.36000000   -23.60100000
   N     63.78000000    51.83000000   -22.47100000
   O     62.14000000    50.84000000   -23.53100000
   H     61.95000000    51.82000000   -26.10100000
   H     64.30000000    50.60000000   -26.76100000
   H     64.08000000    52.45000000   -25.24100000
   H     65.13000000    51.17000000   -24.68100000
   H     64.66000000    52.28000000   -22.63100000
   H     63.35000000    51.86000000   -21.55100000
   N     62.43000000    48.32000000   -26.14100000
   C     62.23000000    46.90000000   -25.95100000
   C     61.79000000    46.39000000   -24.59100000
   O     61.71000000    45.19000000   -24.39100000
   H     61.91000000    48.80000000   -26.87100000
   H     63.06000000    46.31000000   -26.33100000
   H     61.44000000    46.68000000   -26.67100000
   N     61.57000000    47.37000000   -23.70100000
   C     61.26000000    47.08000000   -22.32100000
   C     60.12000000    47.94000000   -21.81100000
   O     60.16000000    49.16000000   -21.98100000
   C     62.54000000    47.33000000   -21.52100000
   C     63.70000000    46.40000000   -21.87100000
   O     63.00000000    48.66000000   -21.60100000
   H     61.76000000    48.33000000   -23.94100000
   H     60.89000000    46.06000000   -22.18100000
   H     62.26000000    47.02000000   -20.52100000
   H     62.21000000    49.21000000   -21.65100000
   H     63.39000000    45.40000000   -21.55100000
   H     63.97000000    46.57000000   -22.91100000
   H     64.60000000    46.67000000   -21.30100000
   N     59.25000000    47.41000000   -20.94100000
   C     58.46000000    48.33000000   -20.14100000
   C     59.35000000    49.11000000   -19.18100000
   O     60.12000000    48.51000000   -18.43100000
   C     57.31000000    47.68000000   -19.38100000
   C     56.52000000    46.60000000   -20.11100000
   C     56.26000000    48.72000000   -18.97100000
   C     55.45000000    45.81000000   -19.35100000
   H     59.53000000    46.50000000   -20.60100000
   H     57.98000000    49.03000000   -20.82100000
   H     57.72000000    47.37000000   -18.42100000
   H     57.29000000    45.95000000   -20.52100000
   H     55.99000000    47.11000000   -20.92100000
   H     55.80000000    49.26000000   -19.80100000
   H     55.44000000    48.32000000   -18.37100000
   H     56.77000000    49.50000000   -18.41100000
   H     54.56000000    46.43000000   -19.24100000
   H     55.02000000    44.95000000   -19.84100000
   H     55.81000000    45.54000000   -18.35100000
   N     59.20000000    50.43000000   -19.19100000
   C     59.77000000    51.32000000   -18.19100000
   C     58.81000000    51.72000000   -17.08100000
   O     57.61000000    51.45000000   -17.16100000
   C     60.20000000    52.61000000   -18.87100000
   C     61.08000000    52.32000000   -20.08100000
   O     60.54000000    52.26000000   -21.21100000
   O     62.31000000    52.20000000   -19.90100000
   H     58.68000000    50.89000000   -19.92100000
   H     60.66000000    50.86000000   -17.76100000
   H     60.77000000    53.16000000   -18.13100000
   H     59.30000000    53.13000000   -19.20100000
   N     59.33000000    52.35000000   -16.03100000
   C     58.52000000    52.84000000   -14.93100000
   C     57.37000000    53.78000000   -15.29100000
   O     56.25000000    53.52000000   -14.88100000
   C     59.25000000    53.39000000   -13.71100000
   C     58.41000000    53.55000000   -12.46100000
   C     58.09000000    54.83000000   -12.00100000
   C     57.91000000    52.44000000   -11.77100000
   C     57.15000000    54.91000000   -10.96100000
   C     57.04000000    52.49000000   -10.67100000
   C     56.67000000    53.78000000   -10.29100000
   H     60.33000000    52.40000000   -15.93100000
   H     57.94000000    51.97000000   -14.62100000
   H     59.64000000    54.37000000   -13.99100000
   H     59.96000000    52.62000000   -13.44100000
   H     58.49000000    55.65000000   -12.58100000
   H     58.18000000    51.48000000   -12.18100000
   H     56.81000000    55.87000000   -10.61100000
   H     56.55000000    51.63000000   -10.23100000
   H     55.98000000    54.00000000    -9.48100000
   N     57.60000000    54.88000000   -16.00100000
   C     56.47000000    55.74000000   -16.33100000
   C     55.43000000    55.05000000   -17.20100000
   O     54.26000000    55.41000000   -17.22100000
   C     57.04000000    56.98000000   -17.01100000
   C     58.42000000    56.55000000   -17.50100000
   C     58.83000000    55.47000000   -16.51100000
   H     56.02000000    56.12000000   -15.41100000
   H     56.41000000    57.44000000   -17.77100000
   H     57.30000000    57.80000000   -16.34100000
   H     58.34000000    56.08000000   -18.48100000
   H     59.17000000    57.34000000   -17.56100000
   H     59.49000000    54.80000000   -17.06100000
   H     59.24000000    55.94000000   -15.62100000
   N     55.83000000    53.95000000   -17.84100000
   C     54.99000000    53.06000000   -18.61100000
   C     54.21000000    52.01000000   -17.83100000
   O     53.01000000    51.78000000   -17.97100000
   C     55.79000000    52.47000000   -19.76100000
   C     56.53000000    53.39000000   -20.73100000
   C     57.32000000    52.61000000   -21.77100000
   O     57.77000000    53.25000000   -22.75100000
   O     57.64000000    51.41000000   -21.64100000
   H     56.70000000    53.61000000   -17.45100000
   H     54.19000000    53.67000000   -19.04100000
   H     55.12000000    51.90000000   -20.41100000
   H     56.46000000    51.75000000   -19.28100000
   H     57.25000000    53.97000000   -20.14100000
   H     55.86000000    54.12000000   -21.17100000
   N     54.85000000    51.52000000   -16.76100000
   C     54.33000000    50.49000000   -15.89100000
   H     53.32800000    50.21100000   -16.21700000
   H     54.98100000    49.61700000   -15.93100000
   H     54.28700000    50.86500000   -14.86800000
   H     55.84000000    51.75000000   -16.74100000
  Ca     59.64000000    51.49000000   -23.48100000
   O     57.34000000    49.33000000   -23.35100000
   H     56.46000000    48.96000000   -23.42100000
   H     57.39000000    49.66000000   -22.45100000
   O     59.58000000    49.37000000   -24.89100000
   H     58.76000000    48.96000000   -24.64100000
   H     59.59000000    49.34000000   -25.84100000

Ca 1.00



