%chk=loop2.holoCaM-CaMKII.run26.water2.chk
%nprocshared=20
%mem=10GB
%nosave
#b3lyp/svp scf=(tight,noincore,xqc) Test 
#IOP(5/87=12) Density=Current Pop=(MK,readradii) iop(6/33=2) iop(6/42=6)

loop2.holoCaM-CaMKII.run26.water2 

   -2  1 
   C     81.31000000    65.37000000    11.04000000
   C     82.47000000    65.29000000    10.06000000
   O     83.41000000    66.08000000    10.11000000
   H     80.42700000    64.91200000    10.59500000
   H     81.57100000    64.84100000    11.95600000
   H     81.10000000    66.41400000    11.27000000
   N     82.34000000    64.48000000     9.01000000
   C     83.35000000    64.32000000     7.98000000
   C     83.52000000    65.53000000     7.07000000
   O     82.56000000    66.13000000     6.60000000
   C     83.05000000    63.04000000     7.21000000
   C     84.17000000    62.72000000     6.23000000
   O     85.34000000    62.95000000     6.59000000
   O     83.89000000    62.53000000     5.03000000
   H     81.55000000    63.85000000     9.04000000
   H     84.32000000    64.26000000     8.47000000
   H     82.12000000    63.20000000     6.66000000
   H     82.95000000    62.25000000     7.95000000
   N     84.79000000    65.76000000     6.70000000
   C     85.32000000    66.75000000     5.78000000
   C     86.23000000    66.18000000     4.70000000
   O     86.55000000    66.90000000     3.75000000
   C     86.07000000    67.91000000     6.43000000
   H     85.45000000    65.18000000     7.19000000
   H     84.54000000    67.23000000     5.21000000
   H     85.51000000    68.44000000     7.20000000
   H     86.98000000    67.50000000     6.87000000
   H     86.37000000    68.67000000     5.71000000
   N     86.50000000    64.88000000     4.63000000
   C     87.48000000    64.30000000     3.73000000
   C     87.17000000    62.93000000     3.14000000
   O     87.81000000    62.48000000     2.19000000
   C     88.81000000    64.14000000     4.47000000
   C     88.74000000    63.49000000     5.84000000
   O     88.51000000    62.27000000     5.98000000
   O     89.00000000    64.13000000     6.88000000
   H     86.17000000    64.28000000     5.37000000
   H     87.66000000    64.95000000     2.87000000
   H     89.20000000    65.15000000     4.63000000
   H     89.56000000    63.62000000     3.88000000
   N     86.19000000    62.18000000     3.63000000
   C     85.86000000    60.89000000     3.05000000
   C     86.76000000    59.73000000     3.45000000
   O     86.53000000    58.62000000     2.98000000
   H     85.68000000    62.42000000     4.47000000
   H     85.88000000    60.89000000     1.96000000
   H     84.87000000    60.61000000     3.39000000
   N     87.76000000    59.85000000     4.33000000
   C     88.74000000    58.81000000     4.56000000
   C     88.26000000    57.60000000     5.34000000
   O     88.86000000    56.53000000     5.38000000
   C     89.92000000    59.46000000     5.29000000
   C     89.76000000    59.91000000     6.74000000
   N     90.79000000    60.51000000     7.34000000
   O     88.75000000    59.76000000     7.42000000
   H     87.95000000    60.76000000     4.72000000
   H     89.06000000    58.46000000     3.58000000
   H     90.31000000    60.28000000     4.70000000
   H     90.72000000    58.73000000     5.39000000
   H     91.65000000    60.67000000     6.83000000
   H     90.64000000    60.91000000     8.26000000
   N     87.07000000    57.71000000     5.95000000
   C     86.39000000    56.59000000     6.56000000
   C     86.56000000    56.55000000     8.08000000
   O     86.08000000    55.61000000     8.71000000
   H     86.68000000    58.62000000     6.13000000
   H     86.55000000    55.66000000     6.03000000
   H     85.33000000    56.83000000     6.48000000
   N     87.31000000    57.47000000     8.68000000
   C     87.68000000    57.56000000    10.08000000
   C     87.28000000    58.92000000    10.62000000
   O     87.37000000    59.91000000     9.89000000
   C     89.14000000    57.32000000    10.43000000
   C     89.59000000    55.92000000    10.00000000
   O     90.03000000    58.27000000     9.87000000
   H     87.69000000    58.27000000     8.20000000
   H     87.04000000    56.89000000    10.66000000
   H     89.25000000    57.50000000    11.50000000
   H     89.48000000    58.84000000     9.34000000
   H     89.97000000    55.96000000     8.99000000
   H     90.38000000    55.64000000    10.69000000
   H     88.82000000    55.18000000    10.20000000
   N     87.07000000    59.01000000    11.94000000
   C     87.14000000    60.24000000    12.71000000
   C     88.59000000    60.71000000    12.75000000
   O     89.40000000    59.87000000    13.15000000
   C     86.58000000    60.12000000    14.12000000
   C     85.25000000    59.39000000    14.28000000
   C     86.33000000    61.49000000    14.74000000
   C     84.78000000    59.00000000    15.68000000
   H     86.95000000    58.13000000    12.40000000
   H     86.49000000    60.95000000    12.19000000
   H     87.38000000    59.62000000    14.67000000
   H     85.42000000    58.45000000    13.75000000
   H     84.50000000    60.05000000    13.84000000
   H     85.71000000    62.14000000    14.12000000
   H     85.96000000    61.38000000    15.76000000
   H     87.32000000    61.93000000    14.69000000
   H     83.87000000    58.40000000    15.67000000
   H     85.45000000    58.37000000    16.26000000
   H     84.70000000    59.84000000    16.38000000
   N     88.95000000    61.95000000    12.44000000
   C     90.16000000    62.73000000    12.63000000
   C     89.96000000    63.65000000    13.83000000
   O     88.84000000    64.07000000    14.12000000
   C     90.47000000    63.40000000    11.30000000
   C     90.62000000    62.46000000    10.11000000
   O     89.64000000    62.26000000     9.36000000
   O     91.74000000    61.92000000     9.94000000
   H     88.18000000    62.45000000    12.01000000
   H     90.86000000    61.93000000    12.88000000
   H     91.43000000    63.90000000    11.38000000
   H     89.65000000    64.09000000    11.12000000
   N     91.03000000    63.98000000    14.56000000
   C     90.95000000    64.76000000    15.78000000
   C     90.01000000    65.95000000    15.68000000
   O     89.19000000    66.16000000    16.57000000
   C     92.30000000    65.17000000    16.36000000
   C     92.19000000    66.01000000    17.61000000
   C     92.41000000    67.39000000    17.63000000
   C     92.25000000    65.33000000    18.84000000
   C     92.72000000    68.08000000    18.81000000
   C     92.42000000    66.02000000    20.04000000
   C     92.65000000    67.41000000    20.03000000
   H     91.91000000    63.62000000    14.22000000
   H     90.43000000    64.23000000    16.57000000
   H     92.92000000    65.73000000    15.66000000
   H     92.79000000    64.23000000    16.64000000
   H     92.45000000    67.90000000    16.68000000
   H     92.26000000    64.25000000    18.87000000
   H     92.97000000    69.13000000    18.79000000
   H     92.36000000    65.44000000    20.95000000
   H     92.77000000    67.94000000    20.96000000
   N     90.10000000    66.78000000    14.64000000
   C     89.28000000    67.97000000    14.60000000
   C     87.80000000    67.71000000    14.40000000
   O     86.94000000    68.47000000    14.83000000
   C     89.95000000    68.89000000    13.58000000
   C     91.32000000    68.30000000    13.28000000
   C     91.04000000    66.82000000    13.54000000
   H     89.36000000    68.43000000    15.59000000
   H     89.37000000    68.77000000    12.67000000
   H     89.83000000    69.96000000    13.80000000
   H     91.54000000    68.49000000    12.22000000
   H     91.99000000    68.83000000    13.96000000
   H     90.61000000    66.29000000    12.69000000
   H     92.00000000    66.44000000    13.88000000
   N     87.38000000    66.57000000    13.84000000
   C     86.00000000    66.18000000    13.67000000
   C     85.49000000    65.61000000    14.99000000
   O     84.36000000    65.91000000    15.37000000
   C     85.94000000    65.10000000    12.60000000
   C     86.49000000    65.48000000    11.23000000
   C     86.41000000    64.38000000    10.18000000
   O     86.65000000    64.65000000     8.99000000
   O     86.45000000    63.19000000    10.56000000
   H     88.00000000    65.90000000    13.40000000
   H     85.34000000    67.05000000    13.55000000
   H     84.89000000    64.85000000    12.43000000
   H     86.51000000    64.27000000    13.02000000
   H     87.54000000    65.80000000    11.27000000
   H     85.99000000    66.41000000    10.94000000
   N     86.34000000    65.02000000    15.82000000
   C     86.03000000    64.63000000    17.18000000
   H     84.99300000    64.29800000    17.23500000
   H     86.68800000    63.81600000    17.48400000
   H     86.17400000    65.48200000    17.84500000
   H     87.34000000    64.95000000    15.64000000
  Ca     87.31000000    62.17000000     8.28000000
   O     84.86000000    61.44000000     9.63000000
   H     83.92000000    61.35000000     9.72000000
   H     85.09000000    62.18000000    10.20000000
   O     85.72000000    60.01000000     7.41000000
   H     85.06000000    59.86000000     6.73000000
   H     85.25000000    59.89000000     8.23000000

Ca 1.00



