%chk=loop3.holoCaM-CaMKII.run93.water2.chk
%nprocshared=20
%mem=10GB
%nosave
#b3lyp/svp scf=(tight,noincore,xqc) Test 
#IOP(5/87=12) Density=Current Pop=(MK,readradii) iop(6/33=2) iop(6/42=6)

loop3.holoCaM-CaMKII.run93.water2 

   0  1 
   C     47.10000000    24.64000000     5.79000000
   C     46.63000000    25.37000000     7.05000000
   O     45.97000000    24.69000000     7.83000000
   H     48.12000000    24.28400000     5.93600000
   H     46.44400000    23.79100000     5.59500000
   H     47.07200000    25.32400000     4.94200000
   N     46.94000000    26.64000000     7.28000000
   C     46.43000000    27.49000000     8.34000000
   C     45.07000000    28.06000000     7.95000000
   O     44.90000000    29.25000000     7.69000000
   C     47.43000000    28.59000000     8.67000000
   C     47.06000000    29.57000000     9.78000000
   O     47.73000000    30.62000000     9.83000000
   O     46.23000000    29.30000000    10.67000000
   H     47.43000000    27.16000000     6.56000000
   H     46.19000000    26.85000000     9.19000000
   H     47.55000000    29.18000000     7.77000000
   H     48.38000000    28.07000000     8.83000000
   N     44.05000000    27.21000000     8.10000000
   C     42.72000000    27.51000000     7.61000000
   C     41.98000000    28.52000000     8.48000000
   O     40.91000000    28.97000000     8.06000000
   C     42.04000000    26.20000000     7.21000000
   C     41.92000000    25.24000000     8.39000000
   C     41.10000000    23.99000000     8.06000000
   C     40.96000000    23.05000000     9.25000000
   N     40.31000000    23.73000000    10.38000000
   H     44.23000000    26.27000000     8.42000000
   H     42.84000000    28.09000000     6.70000000
   H     42.50000000    25.77000000     6.32000000
   H     41.00000000    26.39000000     6.94000000
   H     41.45000000    25.80000000     9.20000000
   H     42.92000000    24.91000000     8.66000000
   H     41.64000000    23.39000000     7.33000000
   H     40.16000000    24.37000000     7.67000000
   H     41.95000000    22.78000000     9.62000000
   H     40.46000000    22.10000000     9.04000000
   H     39.65000000    24.40000000    10.02000000
   H     39.88000000    23.09000000    11.03000000
   H     40.95000000    24.29000000    10.93000000
   N     42.45000000    28.91000000     9.66000000
   C     41.89000000    29.94000000    10.52000000
   C     42.69000000    31.23000000    10.44000000
   O     42.23000000    32.30000000    10.83000000
   C     41.98000000    29.36000000    11.93000000
   C     43.28000000    28.68000000    12.35000000
   O     44.09000000    29.35000000    13.03000000
   O     43.61000000    27.54000000    11.96000000
   H     43.31000000    28.44000000     9.92000000
   H     40.84000000    30.12000000    10.32000000
   H     41.14000000    28.68000000    12.07000000
   H     41.86000000    30.27000000    12.51000000
   N     43.93000000    31.21000000     9.94000000
   C     44.78000000    32.37000000     9.74000000
   C     45.38000000    33.09000000    10.94000000
   O     45.47000000    34.32000000    10.95000000
   H     44.22000000    30.33000000     9.56000000
   H     44.32000000    33.09000000     9.07000000
   H     45.55000000    32.05000000     9.04000000
   N     45.79000000    32.34000000    11.96000000
   C     46.45000000    32.91000000    13.11000000
   C     47.96000000    32.87000000    13.00000000
   O     48.75000000    33.28000000    13.85000000
   C     45.94000000    32.12000000    14.32000000
   C     46.65000000    30.81000000    14.58000000
   N     47.00000000    30.50000000    15.84000000
   O     47.05000000    30.10000000    13.66000000
   H     45.79000000    31.34000000    11.80000000
   H     46.20000000    33.98000000    13.12000000
   H     44.86000000    31.99000000    14.20000000
   H     46.15000000    32.80000000    15.14000000
   H     46.64000000    31.04000000    16.61000000
   H     47.65000000    29.73000000    15.93000000
   N     48.46000000    32.56000000    11.80000000
   C     49.80000000    32.68000000    11.26000000
   C     50.67000000    31.48000000    11.62000000
   O     51.84000000    31.44000000    11.25000000
   H     47.82000000    32.16000000    11.12000000
   H     50.32000000    33.53000000    11.70000000
   H     49.74000000    32.74000000    10.17000000
   N     50.13000000    30.43000000    12.23000000
   C     50.82000000    29.24000000    12.69000000
   C     50.00000000    28.02000000    12.29000000
   O     48.77000000    27.99000000    12.33000000
   C     51.07000000    29.29000000    14.19000000
   C     51.88000000    30.48000000    14.63000000
   C     53.28000000    30.58000000    14.50000000
   C     51.26000000    31.56000000    15.26000000
   C     54.03000000    31.65000000    15.00000000
   C     51.99000000    32.65000000    15.75000000
   C     53.38000000    32.76000000    15.58000000
   O     54.09000000    33.76000000    16.17000000
   H     49.12000000    30.38000000    12.21000000
   H     51.76000000    29.21000000    12.13000000
   H     51.54000000    28.41000000    14.64000000
   H     50.10000000    29.32000000    14.70000000
   H     53.85000000    29.85000000    13.95000000
   H     50.18000000    31.65000000    15.26000000
   H     55.10000000    31.57000000    14.98000000
   H     51.50000000    33.48000000    16.24000000
   H     55.04000000    33.63000000    16.27000000
   N     50.68000000    26.94000000    11.88000000
   C     50.18000000    25.63000000    11.54000000
   C     50.63000000    24.62000000    12.58000000
   O     51.74000000    24.69000000    13.09000000
   C     50.73000000    25.21000000    10.18000000
   C     50.43000000    26.12000000     8.99000000
   C     50.35000000    23.81000000     9.72000000
   C     51.19000000    26.05000000     7.67000000
   H     51.68000000    26.99000000    11.79000000
   H     49.09000000    25.68000000    11.59000000
   H     51.80000000    25.30000000    10.35000000
   H     50.48000000    27.17000000     9.30000000
   H     49.39000000    26.04000000     8.68000000
   H     50.71000000    23.70000000     8.70000000
   H     50.74000000    23.10000000    10.45000000
   H     49.26000000    23.80000000     9.67000000
   H     51.13000000    25.17000000     7.03000000
   H     50.75000000    26.86000000     7.09000000
   H     52.24000000    26.30000000     7.85000000
   N     49.69000000    23.76000000    12.99000000
   C     49.93000000    22.70000000    13.95000000
   C     49.97000000    21.28000000    13.39000000
   O     49.85000000    21.09000000    12.18000000
   C     48.79000000    22.75000000    14.96000000
   O     47.56000000    23.02000000    14.33000000
   H     48.73000000    23.89000000    12.70000000
   H     50.89000000    22.96000000    14.40000000
   H     49.06000000    23.57000000    15.62000000
   H     48.65000000    21.80000000    15.48000000
   H     47.12000000    23.52000000    15.02000000
   N     50.15000000    20.28000000    14.25000000
   C     50.20000000    18.89000000    13.83000000
   C     48.87000000    18.32000000    13.37000000
   O     48.82000000    17.59000000    12.38000000
   C     50.79000000    18.03000000    14.95000000
   H     50.12000000    20.48000000    15.24000000
   H     50.82000000    18.74000000    12.95000000
   H     50.03000000    17.41000000    15.41000000
   H     51.61000000    17.43000000    14.55000000
   H     51.19000000    18.63000000    15.77000000
   N     47.78000000    18.79000000    13.99000000
   C     46.42000000    18.55000000    13.56000000
   C     46.14000000    19.10000000    12.17000000
   O     45.65000000    18.35000000    11.33000000
   C     45.39000000    18.94000000    14.63000000
   H     47.87000000    19.13000000    14.93000000
   H     46.42000000    17.48000000    13.39000000
   H     45.39000000    18.23000000    15.45000000
   H     45.53000000    19.97000000    14.97000000
   H     44.37000000    18.95000000    14.26000000
   N     46.44000000    20.38000000    11.93000000
   C     46.25000000    21.20000000    10.75000000
   C     47.03000000    20.69000000     9.55000000
   O     46.57000000    20.86000000     8.42000000
   C     46.66000000    22.64000000    11.08000000
   C     45.58000000    23.31000000    11.93000000
   C     45.98000000    24.68000000    12.46000000
   O     45.27000000    25.14000000    13.37000000
   O     46.82000000    25.48000000    11.98000000
   H     46.92000000    20.84000000    12.69000000
   H     45.18000000    21.20000000    10.53000000
   H     46.71000000    23.22000000    10.16000000
   H     47.60000000    22.69000000    11.63000000
   H     45.42000000    22.58000000    12.72000000
   H     44.64000000    23.34000000    11.39000000
   N     48.20000000    20.14000000     9.84000000
   C     48.95000000    19.29000000     8.92000000
   H     49.93300000    19.07900000     9.34100000
   H     48.41200000    18.35400000     8.76800000
   H     49.06700000    19.80200000     7.96500000
   H     48.50000000    20.21000000    10.80000000
  Ca     46.17000000    27.83000000    12.86000000
   O     44.91000000    26.95000000    15.14000000
   H     44.01000000    26.92000000    15.47000000
   H     45.06000000    26.08000000    14.77000000
   O     48.06000000    27.48000000    15.15000000
   H     47.53000000    27.30000000    15.93000000
   H     48.95000000    27.22000000    15.39000000

Ca 1.00



