%chk=loop4.holoCaM-CaMKII.run7.water2.chk
%nprocshared=20
%mem=10GB
%nosave
#b3lyp/svp scf=(tight,noincore,xqc) Test 
#IOP(5/87=12) Density=Current Pop=(MK,readradii) iop(6/33=2) iop(6/42=6)

loop4.holoCaM-CaMKII.run7.water2 

   -3  1 
   C     72.61000000    50.47000000    32.19000000
   C     71.66000000    49.32000000    32.51000000
   O     70.63000000    49.57000000    33.13000000
   H     73.54400000    50.07000000    31.79600000
   H     72.15300000    51.12300000    31.44700000
   H     72.81300000    51.03800000    33.09800000
   N     72.01000000    48.14000000    32.00000000
   C     71.30000000    46.96000000    32.44000000
   C     71.62000000    46.69000000    33.91000000
   O     72.74000000    46.33000000    34.25000000
   C     71.70000000    45.81000000    31.51000000
   C     70.97000000    44.55000000    31.93000000
   O     69.96000000    44.59000000    32.67000000
   O     71.57000000    43.49000000    31.62000000
   H     72.91000000    48.02000000    31.56000000
   H     70.25000000    47.18000000    32.28000000
   H     72.77000000    45.65000000    31.56000000
   H     71.23000000    46.04000000    30.55000000
   N     70.61000000    46.85000000    34.77000000
   C     70.75000000    46.54000000    36.18000000
   C     70.45000000    45.09000000    36.52000000
   O     70.95000000    44.55000000    37.50000000
   C     69.79000000    47.43000000    36.96000000
   C     70.03000000    48.91000000    36.67000000
   C     70.08000000    47.20000000    38.44000000
   C     69.01000000    49.87000000    37.27000000
   H     69.73000000    47.23000000    34.45000000
   H     71.74000000    46.72000000    36.58000000
   H     68.71000000    47.27000000    36.84000000
   H     69.95000000    49.03000000    35.59000000
   H     71.04000000    49.15000000    36.99000000
   H     69.86000000    48.15000000    38.92000000
   H     69.45000000    46.37000000    38.76000000
   H     71.12000000    46.97000000    38.70000000
   H     69.19000000    50.82000000    36.77000000
   H     67.98000000    49.51000000    37.17000000
   H     69.20000000    50.05000000    38.33000000
   N     69.71000000    44.42000000    35.63000000
   C     69.27000000    43.06000000    35.85000000
   C     70.30000000    42.01000000    35.50000000
   O     70.36000000    41.02000000    36.23000000
   C     67.99000000    42.77000000    35.07000000
   C     66.91000000    43.79000000    35.40000000
   O     66.73000000    44.23000000    36.56000000
   O     66.26000000    44.17000000    34.40000000
   H     69.38000000    44.91000000    34.81000000
   H     69.02000000    43.03000000    36.92000000
   H     67.68000000    41.79000000    35.42000000
   H     68.21000000    42.75000000    34.00000000
   N     71.14000000    42.13000000    34.46000000
   C     71.93000000    41.05000000    33.93000000
   C     71.14000000    40.29000000    32.87000000
   O     71.07000000    39.07000000    32.94000000
   H     71.08000000    43.00000000    33.94000000
   H     72.20000000    40.39000000    34.75000000
   H     72.88000000    41.46000000    33.58000000
   N     70.59000000    40.99000000    31.87000000
   C     69.86000000    40.39000000    30.78000000
   C     70.32000000    40.92000000    29.43000000
   O     69.93000000    40.47000000    28.35000000
   C     68.36000000    40.52000000    31.05000000
   C     67.77000000    41.92000000    31.00000000
   O     66.76000000    42.01000000    31.73000000
   O     68.35000000    42.91000000    30.50000000
   H     70.67000000    41.99000000    31.81000000
   H     70.09000000    39.33000000    30.73000000
   H     68.13000000    40.25000000    32.08000000
   H     67.82000000    39.81000000    30.42000000
   N     71.24000000    41.89000000    29.38000000
   C     71.90000000    42.41000000    28.20000000
   C     71.06000000    43.36000000    27.37000000
   O     71.54000000    43.70000000    26.29000000
   H     71.47000000    42.34000000    30.26000000
   H     72.22000000    41.57000000    27.59000000
   H     72.69000000    43.06000000    28.58000000
   N     69.89000000    43.80000000    27.83000000
   C     69.04000000    44.87000000    27.35000000
   C     68.58000000    45.81000000    28.45000000
   O     68.65000000    45.51000000    29.64000000
   C     67.81000000    44.42000000    26.57000000
   C     68.24000000    43.81000000    25.24000000
   C     67.05000000    43.47000000    24.36000000
   N     66.52000000    42.26000000    24.55000000
   O     66.53000000    44.24000000    23.55000000
   H     69.71000000    43.44000000    28.76000000
   H     69.64000000    45.45000000    26.64000000
   H     67.18000000    45.25000000    26.28000000
   H     67.13000000    43.76000000    27.11000000
   H     68.76000000    42.86000000    25.38000000
   H     68.76000000    44.51000000    24.59000000
   H     66.95000000    41.69000000    25.27000000
   H     65.63000000    41.98000000    24.16000000
   N     68.15000000    46.99000000    27.98000000
   C     67.93000000    48.16000000    28.80000000
   C     66.47000000    48.59000000    28.67000000
   O     66.15000000    49.00000000    27.56000000
   C     68.88000000    49.31000000    28.46000000
   C     68.78000000    50.33000000    29.59000000
   C     70.32000000    48.92000000    28.14000000
   H     68.08000000    47.12000000    26.99000000
   H     68.05000000    47.76000000    29.81000000
   H     68.51000000    49.90000000    27.62000000
   H     69.35000000    51.25000000    29.49000000
   H     67.75000000    50.64000000    29.77000000
   H     69.17000000    49.75000000    30.42000000
   H     70.95000000    49.81000000    28.21000000
   H     70.67000000    48.16000000    28.83000000
   H     70.32000000    48.55000000    27.12000000
   N     65.62000000    48.38000000    29.68000000
   C     64.25000000    48.87000000    29.74000000
   C     64.07000000    50.28000000    30.26000000
   O     65.02000000    50.84000000    30.80000000
   C     63.36000000    47.95000000    30.57000000
   C     61.88000000    48.29000000    30.60000000
   N     61.07000000    48.27000000    29.53000000
   O     61.49000000    48.70000000    31.69000000
   H     66.03000000    48.08000000    30.55000000
   H     63.85000000    48.92000000    28.73000000
   H     63.77000000    47.90000000    31.58000000
   H     63.47000000    46.95000000    30.16000000
   H     61.35000000    47.94000000    28.61000000
   H     60.11000000    48.39000000    29.80000000
   N     62.91000000    50.93000000    30.13000000
   C     62.64000000    52.30000000    30.52000000
   C     62.83000000    52.67000000    31.98000000
   O     63.22000000    53.81000000    32.24000000
   C     61.24000000    52.56000000    29.97000000
   C     60.78000000    53.99000000    30.15000000
   C     61.40000000    54.94000000    29.33000000
   C     59.95000000    54.36000000    31.21000000
   C     61.18000000    56.29000000    29.63000000
   C     59.66000000    55.71000000    31.42000000
   C     60.32000000    56.70000000    30.67000000
   O     60.22000000    58.05000000    30.85000000
   H     62.19000000    50.49000000    29.57000000
   H     63.33000000    52.96000000    29.99000000
   H     60.46000000    51.95000000    30.43000000
   H     61.20000000    52.30000000    28.91000000
   H     62.02000000    54.61000000    28.51000000
   H     59.48000000    53.55000000    31.75000000
   H     61.70000000    57.07000000    29.09000000
   H     58.94000000    55.91000000    32.21000000
   H     59.71000000    58.33000000    31.61000000
   N     62.74000000    51.72000000    32.92000000
   C     63.06000000    52.01000000    34.30000000
   C     64.56000000    52.14000000    34.54000000
   O     65.01000000    52.88000000    35.41000000
   C     62.40000000    51.11000000    35.34000000
   C     62.79000000    49.64000000    35.31000000
   C     62.31000000    48.95000000    36.58000000
   O     62.89000000    49.19000000    37.66000000
   O     61.33000000    48.18000000    36.58000000
   H     62.35000000    50.81000000    32.72000000
   H     62.75000000    53.05000000    34.45000000
   H     61.32000000    51.17000000    35.24000000
   H     62.66000000    51.46000000    36.33000000
   H     63.87000000    49.52000000    35.23000000
   H     62.32000000    49.15000000    34.45000000
   N     65.32000000    51.33000000    33.79000000
   C     66.77000000    51.27000000    33.79000000
   C     67.30000000    52.50000000    33.08000000
   O     68.32000000    53.06000000    33.48000000
   C     67.17000000    49.93000000    33.18000000
   C     66.58000000    48.71000000    33.88000000
   C     67.03000000    47.49000000    33.09000000
   O     68.00000000    46.77000000    33.42000000
   O     66.56000000    47.14000000    31.98000000
   H     64.92000000    50.69000000    33.12000000
   H     67.20000000    51.28000000    34.79000000
   H     68.24000000    49.83000000    33.34000000
   H     66.99000000    49.91000000    32.11000000
   H     65.50000000    48.56000000    33.92000000
   H     66.90000000    48.77000000    34.92000000
   N     66.62000000    53.12000000    32.10000000
   C     66.91000000    54.36000000    31.41000000
   H     67.91300000    54.31300000    30.98500000
   H     66.18400000    54.51000000    30.61100000
   H     66.85300000    55.19000000    32.11400000
   H     65.72000000    52.71000000    31.94000000
  Ca     67.46000000    44.69000000    31.99000000
   O     64.28000000    44.55000000    32.22000000
   H     63.45000000    44.09000000    32.14000000
   H     64.14000000    45.18000000    32.93000000
   O     66.00000000    44.47000000    29.85000000
   H     66.03000000    43.93000000    29.06000000
   H     65.24000000    44.14000000    30.33000000

Ca 1.00



