%chk=loop4.apoCaM-CA-Ng.Init293.run96.water3.chk
%nprocshared=20
%mem=10GB
%nosave
#b3lyp/svp scf=(tight,noincore,xqc) Test 
#IOP(5/87=12) Density=Current Pop=(MK,readradii) iop(6/33=2) iop(6/42=6)

loop4.apoCaM-CA-Ng.Init293.run96.water3 

   -3  1 
   C     91.64000000    75.98000000    44.59000000
   C     92.44000000    74.69000000    44.72000000
   O     92.09000000    73.64000000    44.20000000
   H     90.69700000    75.87800000    45.12700000
   H     92.21100000    76.80600000    45.01400000
   H     91.43800000    76.17900000    43.53700000
   N     93.52000000    74.68000000    45.51000000
   C     94.41000000    73.63000000    45.98000000
   C     94.96000000    72.62000000    44.97000000
   O     95.76000000    71.80000000    45.40000000
   C     93.83000000    72.95000000    47.22000000
   C     92.49000000    72.23000000    47.15000000
   O     91.61000000    72.50000000    47.99000000
   O     92.36000000    71.30000000    46.33000000
   H     93.75000000    75.62000000    45.79000000
   H     95.27000000    74.17000000    46.37000000
   H     93.92000000    73.62000000    48.07000000
   H     94.47000000    72.10000000    47.48000000
   N     94.58000000    72.65000000    43.69000000
   C     94.77000000    71.57000000    42.74000000
   C     93.93000000    70.32000000    42.94000000
   O     92.79000000    70.50000000    43.36000000
   C     94.64000000    72.02000000    41.29000000
   C     95.87000000    72.84000000    40.89000000
   C     93.24000000    72.53000000    40.96000000
   C     95.93000000    73.30000000    39.44000000
   H     93.68000000    73.08000000    43.58000000
   H     95.80000000    71.22000000    42.87000000
   H     94.66000000    71.09000000    40.73000000
   H     96.75000000    72.22000000    41.03000000
   H     95.98000000    73.70000000    41.55000000
   H     93.24000000    72.72000000    39.88000000
   H     92.44000000    71.83000000    41.19000000
   H     92.93000000    73.42000000    41.52000000
   H     96.83000000    73.88000000    39.25000000
   H     95.92000000    72.45000000    38.77000000
   H     95.16000000    74.02000000    39.13000000
   N     94.48000000    69.13000000    42.72000000
   C     93.72000000    67.90000000    42.81000000
   C     93.39000000    67.45000000    44.23000000
   O     94.09000000    67.88000000    45.14000000
   C     94.45000000    66.81000000    42.04000000
   C     95.92000000    66.63000000    42.41000000
   O     96.28000000    65.52000000    42.85000000
   O     96.72000000    67.56000000    42.16000000
   H     95.47000000    69.06000000    42.50000000
   H     92.79000000    68.15000000    42.29000000
   H     94.28000000    67.09000000    41.00000000
   H     93.99000000    65.85000000    42.28000000
   N     92.35000000    66.66000000    44.48000000
   C     91.36000000    66.18000000    43.54000000
   C     90.41000000    67.30000000    43.11000000
   O     90.49000000    68.44000000    43.56000000
   H     92.02000000    66.70000000    45.44000000
   H     90.63000000    65.49000000    43.95000000
   H     91.79000000    65.64000000    42.69000000
   N     89.42000000    67.02000000    42.26000000
   C     88.95000000    65.68000000    41.99000000
   C     88.75000000    65.58000000    40.48000000
   O     87.60000000    65.56000000    40.05000000
   C     87.69000000    65.37000000    42.79000000
   C     87.16000000    63.94000000    42.70000000
   O     87.89000000    62.93000000    42.60000000
   O     85.92000000    63.85000000    42.71000000
   H     88.82000000    67.79000000    42.00000000
   H     89.70000000    64.92000000    42.25000000
   H     86.86000000    66.04000000    42.59000000
   H     87.86000000    65.50000000    43.85000000
   N     89.75000000    65.37000000    39.62000000
   C     91.17000000    65.55000000    39.85000000
   C     91.88000000    65.97000000    38.57000000
   O     93.10000000    65.86000000    38.54000000
   H     89.33000000    65.34000000    38.71000000
   H     91.53000000    64.54000000    40.04000000
   H     91.33000000    66.24000000    40.68000000
   N     91.19000000    66.41000000    37.51000000
   C     91.81000000    66.55000000    36.21000000
   C     92.21000000    67.97000000    35.84000000
   O     92.65000000    68.16000000    34.71000000
   C     90.81000000    65.93000000    35.23000000
   C     90.69000000    64.41000000    35.33000000
   C     90.07000000    63.87000000    36.61000000
   N     88.75000000    64.01000000    36.80000000
   O     90.69000000    63.29000000    37.49000000
   H     90.21000000    66.63000000    37.62000000
   H     92.64000000    65.85000000    36.11000000
   H     91.07000000    66.27000000    34.24000000
   H     89.83000000    66.37000000    35.43000000
   H     91.66000000    63.91000000    35.28000000
   H     90.10000000    64.03000000    34.50000000
   H     88.20000000    64.42000000    36.06000000
   H     88.36000000    63.48000000    37.56000000
   N     92.04000000    68.97000000    36.70000000
   C     92.49000000    70.33000000    36.48000000
   C     91.53000000    71.32000000    37.12000000
   O     91.28000000    71.19000000    38.31000000
   C     93.88000000    70.64000000    37.03000000
   C     94.99000000    70.04000000    36.17000000
   C     94.18000000    70.07000000    38.42000000
   H     91.51000000    68.78000000    37.54000000
   H     92.49000000    70.61000000    35.43000000
   H     94.00000000    71.72000000    37.05000000
   H     94.84000000    68.97000000    36.01000000
   H     94.96000000    70.53000000    35.20000000
   H     95.95000000    70.01000000    36.68000000
   H     95.17000000    70.28000000    38.83000000
   H     93.42000000    70.27000000    39.16000000
   H     94.06000000    68.99000000    38.32000000
   N     90.87000000    72.26000000    36.43000000
   C     89.91000000    73.25000000    36.86000000
   C     88.50000000    72.68000000    36.91000000
   O     87.61000000    73.27000000    37.52000000
   C     90.12000000    74.43000000    35.92000000
   C     89.20000000    75.59000000    36.27000000
   N     88.16000000    75.89000000    35.49000000
   O     89.47000000    76.26000000    37.27000000
   H     91.15000000    72.41000000    35.47000000
   H     90.09000000    73.65000000    37.86000000
   H     89.87000000    74.06000000    34.93000000
   H     91.18000000    74.69000000    35.85000000
   H     88.03000000    75.33000000    34.66000000
   H     87.76000000    76.77000000    35.77000000
   N     88.27000000    71.47000000    36.41000000
   C     86.97000000    70.82000000    36.38000000
   C     86.40000000    70.51000000    37.76000000
   O     87.05000000    69.90000000    38.61000000
   C     87.08000000    69.55000000    35.53000000
   C     87.48000000    69.80000000    34.09000000
   C     88.76000000    69.39000000    33.70000000
   C     86.58000000    70.40000000    33.20000000
   C     89.19000000    69.51000000    32.37000000
   C     87.00000000    70.53000000    31.87000000
   C     88.27000000    70.07000000    31.46000000
   O     88.66000000    70.24000000    30.17000000
   H     88.99000000    70.89000000    36.02000000
   H     86.27000000    71.48000000    35.88000000
   H     86.09000000    69.10000000    35.53000000
   H     87.63000000    68.70000000    35.93000000
   H     89.40000000    68.87000000    34.40000000
   H     85.58000000    70.63000000    33.53000000
   H     90.14000000    69.19000000    31.98000000
   H     86.42000000    70.90000000    31.04000000
   H     89.61000000    70.29000000    30.04000000
   N     85.13000000    70.89000000    37.92000000
   C     84.52000000    71.02000000    39.23000000
   C     85.12000000    71.92000000    40.30000000
   O     84.70000000    71.90000000    41.45000000
   C     84.12000000    69.66000000    39.79000000
   C     83.08000000    68.84000000    39.04000000
   C     83.56000000    68.03000000    37.85000000
   O     84.37000000    67.08000000    38.00000000
   O     83.03000000    68.14000000    36.72000000
   H     84.72000000    71.43000000    37.17000000
   H     83.57000000    71.50000000    38.99000000
   H     83.75000000    69.77000000    40.81000000
   H     84.96000000    69.00000000    39.98000000
   H     82.21000000    69.44000000    38.77000000
   H     82.78000000    68.04000000    39.72000000
   N     86.14000000    72.71000000    39.97000000
   C     86.70000000    73.75000000    40.81000000
   C     85.98000000    75.09000000    40.69000000
   O     85.69000000    75.80000000    41.65000000
   C     88.19000000    73.91000000    40.52000000
   C     89.05000000    72.66000000    40.73000000
   C     89.18000000    71.99000000    42.09000000
   O     89.63000000    70.83000000    42.11000000
   O     88.89000000    72.56000000    43.16000000
   H     86.65000000    72.52000000    39.12000000
   H     86.51000000    73.34000000    41.80000000
   H     88.62000000    74.65000000    41.19000000
   H     88.41000000    74.32000000    39.54000000
   H     90.07000000    72.95000000    40.48000000
   H     88.74000000    71.85000000    40.06000000
   N     85.46000000    75.39000000    39.50000000
   C     84.38000000    76.36000000    39.40000000
   H     83.51800000    76.00200000    39.96300000
   H     84.71000000    77.31500000    39.80900000
   H     84.10200000    76.48900000    38.35400000
   H     85.66000000    74.83000000    38.69000000
  Ca     90.52000000    70.82000000    44.58000000
   O     90.42000000    69.18000000    46.63000000
   H     89.91000000    69.30000000    47.44000000
   H     90.40000000    68.24000000    46.47000000
   O     87.85000000    69.95000000    45.01000000
   H     87.72000000    69.01000000    45.07000000
   H     87.03000000    70.28000000    44.62000000
   O     89.40000000    72.55000000    46.19000000
   H     88.74000000    73.16000000    46.51000000
   H     90.08000000    72.55000000    46.87000000

Ca 1.00



