%chk=loop4.apoCaM-CA-Ng.Init293.run13.water3.chk
%nprocshared=20
%mem=10GB
%nosave
#b3lyp/svp scf=(tight,noincore,xqc) Test 
#IOP(5/87=12) Density=Current Pop=(MK,readradii) iop(6/33=2) iop(6/42=6)

loop4.apoCaM-CA-Ng.Init293.run13.water3 

   -3  1 
   C     47.84000000    39.96000000    28.00000000
   C     48.82000000    40.76000000    28.84000000
   O     49.45000000    40.23000000    29.76000000
   H     46.95500000    40.56400000    27.80100000
   H     48.31000000    39.68400000    27.05600000
   H     47.55000000    39.05800000    28.53900000
   N     49.21000000    41.90000000    28.27000000
   C     50.27000000    42.82000000    28.64000000
   C     51.65000000    42.19000000    28.75000000
   O     51.91000000    41.30000000    29.56000000
   C     49.92000000    43.75000000    29.79000000
   C     49.37000000    43.14000000    31.07000000
   O     48.13000000    43.16000000    31.28000000
   O     50.18000000    42.72000000    31.91000000
   H     48.67000000    42.17000000    27.46000000
   H     50.29000000    43.47000000    27.77000000
   H     49.08000000    44.37000000    29.46000000
   H     50.81000000    44.29000000    30.11000000
   N     52.67000000    42.76000000    28.10000000
   C     54.10000000    42.50000000    28.08000000
   C     54.75000000    42.23000000    29.43000000
   O     55.88000000    41.75000000    29.49000000
   C     54.47000000    41.52000000    26.97000000
   C     53.96000000    42.08000000    25.64000000
   C     53.77000000    40.17000000    27.15000000
   C     54.41000000    41.25000000    24.44000000
   H     52.36000000    43.44000000    27.42000000
   H     54.58000000    43.42000000    27.77000000
   H     55.56000000    41.54000000    26.92000000
   H     54.54000000    42.99000000    25.46000000
   H     52.88000000    42.22000000    25.66000000
   H     54.24000000    39.40000000    26.55000000
   H     53.76000000    39.93000000    28.21000000
   H     52.74000000    40.34000000    26.85000000
   H     55.49000000    41.06000000    24.52000000
   H     53.93000000    40.28000000    24.35000000
   H     54.19000000    41.82000000    23.54000000
   N     54.13000000    42.65000000    30.53000000
   C     54.71000000    42.73000000    31.86000000
   C     54.29000000    41.51000000    32.66000000
   O     53.11000000    41.23000000    32.85000000
   C     54.41000000    44.02000000    32.60000000
   C     54.89000000    45.36000000    32.04000000
   O     55.58000000    45.38000000    31.00000000
   O     54.64000000    46.38000000    32.72000000
   H     53.14000000    42.78000000    30.41000000
   H     55.80000000    42.65000000    31.84000000
   H     54.86000000    44.03000000    33.60000000
   H     53.33000000    44.09000000    32.70000000
   N     55.20000000    40.66000000    33.13000000
   C     56.65000000    40.66000000    33.24000000
   C     57.04000000    41.57000000    34.39000000
   O     56.25000000    41.58000000    35.33000000
   H     54.82000000    39.86000000    33.62000000
   H     57.18000000    40.85000000    32.30000000
   H     57.02000000    39.65000000    33.42000000
   N     58.08000000    42.41000000    34.29000000
   C     58.86000000    42.61000000    33.09000000
   C     59.94000000    41.56000000    32.92000000
   O     60.39000000    40.92000000    33.87000000
   C     59.46000000    44.01000000    33.03000000
   C     60.37000000    44.25000000    34.23000000
   O     59.84000000    44.50000000    35.33000000
   O     61.61000000    44.17000000    34.06000000
   H     58.17000000    43.09000000    35.03000000
   H     58.17000000    42.51000000    32.25000000
   H     58.62000000    44.70000000    32.98000000
   H     60.00000000    44.03000000    32.08000000
   N     60.46000000    41.26000000    31.72000000
   C     60.16000000    41.70000000    30.38000000
   C     60.53000000    40.68000000    29.31000000
   O     60.61000000    41.09000000    28.16000000
   H     61.09000000    40.47000000    31.72000000
   H     60.63000000    42.67000000    30.25000000
   H     59.07000000    41.72000000    30.32000000
   N     60.72000000    39.39000000    29.62000000
   C     61.12000000    38.39000000    28.66000000
   C     59.99000000    37.48000000    28.20000000
   O     59.88000000    37.33000000    26.99000000
   C     62.29000000    37.58000000    29.20000000
   C     63.55000000    38.43000000    29.35000000
   C     64.70000000    37.57000000    29.87000000
   N     65.64000000    37.09000000    29.06000000
   O     64.73000000    37.26000000    31.06000000
   H     60.64000000    39.14000000    30.60000000
   H     61.46000000    38.86000000    27.73000000
   H     62.45000000    36.83000000    28.42000000
   H     62.03000000    37.13000000    30.16000000
   H     63.44000000    39.27000000    30.04000000
   H     63.88000000    38.98000000    28.47000000
   H     65.72000000    37.33000000    28.08000000
   H     66.26000000    36.43000000    29.49000000
   N     59.20000000    36.90000000    29.10000000
   C     57.90000000    36.29000000    28.91000000
   C     57.61000000    35.09000000    29.81000000
   O     58.29000000    34.89000000    30.81000000
   C     56.74000000    37.28000000    29.04000000
   C     56.49000000    38.02000000    27.73000000
   C     56.84000000    38.29000000    30.18000000
   H     59.45000000    36.96000000    30.08000000
   H     57.88000000    35.95000000    27.88000000
   H     55.85000000    36.67000000    29.20000000
   H     57.41000000    38.50000000    27.39000000
   H     56.00000000    37.45000000    26.95000000
   H     55.82000000    38.87000000    27.91000000
   H     55.90000000    38.84000000    30.15000000
   H     56.89000000    37.74000000    31.12000000
   H     57.70000000    38.95000000    30.15000000
   N     56.68000000    34.21000000    29.42000000
   C     56.11000000    33.02000000    30.02000000
   C     55.74000000    33.18000000    31.49000000
   O     54.61000000    32.87000000    31.85000000
   C     57.05000000    31.84000000    29.79000000
   C     56.45000000    30.48000000    30.09000000
   N     55.48000000    29.99000000    29.30000000
   O     56.76000000    29.85000000    31.10000000
   H     56.24000000    34.47000000    28.54000000
   H     55.18000000    32.85000000    29.48000000
   H     57.92000000    31.98000000    30.44000000
   H     57.44000000    31.76000000    28.78000000
   H     55.21000000    30.51000000    28.48000000
   H     55.24000000    29.01000000    29.30000000
   N     56.60000000    33.55000000    32.44000000
   C     56.41000000    33.62000000    33.88000000
   C     55.22000000    34.50000000    34.26000000
   O     55.18000000    35.66000000    33.86000000
   C     57.77000000    34.09000000    34.38000000
   C     57.87000000    34.27000000    35.88000000
   C     58.47000000    33.28000000    36.66000000
   C     57.47000000    35.50000000    36.42000000
   C     58.58000000    33.49000000    38.04000000
   C     57.44000000    35.60000000    37.81000000
   C     58.01000000    34.62000000    38.64000000
   O     58.12000000    34.80000000    39.99000000
   H     57.49000000    33.85000000    32.09000000
   H     56.34000000    32.64000000    34.35000000
   H     58.08000000    35.08000000    34.05000000
   H     58.53000000    33.43000000    33.97000000
   H     58.87000000    32.41000000    36.15000000
   H     57.23000000    36.31000000    35.74000000
   H     59.10000000    32.76000000    38.65000000
   H     56.98000000    36.49000000    38.23000000
   H     57.78000000    35.68000000    40.16000000
   N     54.20000000    33.99000000    34.96000000
   C     53.01000000    34.67000000    35.42000000
   C     52.07000000    35.14000000    34.31000000
   O     51.11000000    35.81000000    34.68000000
   C     53.34000000    35.74000000    36.45000000
   C     53.69000000    35.10000000    37.79000000
   C     53.94000000    36.20000000    38.82000000
   O     53.38000000    36.12000000    39.93000000
   O     54.58000000    37.21000000    38.47000000
   H     54.22000000    32.99000000    35.08000000
   H     52.35000000    33.97000000    35.94000000
   H     52.57000000    36.49000000    36.58000000
   H     54.25000000    36.29000000    36.18000000
   H     54.57000000    34.47000000    37.67000000
   H     52.78000000    34.59000000    38.08000000
   N     52.29000000    34.78000000    33.05000000
   C     51.48000000    35.04000000    31.87000000
   C     50.24000000    34.17000000    31.67000000
   O     49.51000000    34.21000000    30.69000000
   C     52.30000000    35.22000000    30.60000000
   C     53.25000000    36.40000000    30.73000000
   C     52.56000000    37.73000000    31.01000000
   O     52.48000000    38.13000000    32.20000000
   O     51.95000000    38.37000000    30.12000000
   H     53.20000000    34.37000000    32.88000000
   H     51.15000000    36.05000000    32.10000000
   H     51.66000000    35.43000000    29.74000000
   H     52.89000000    34.32000000    30.41000000
   H     53.74000000    36.31000000    29.76000000
   H     54.06000000    36.20000000    31.44000000
   N     50.03000000    33.28000000    32.65000000
   C     48.93000000    32.40000000    32.96000000
   H     48.06700000    32.66900000    32.35100000
   H     49.21700000    31.37000000    32.74800000
   H     48.67300000    32.49600000    34.01500000
   H     50.79000000    33.21000000    33.32000000
  Ca     50.99000000    40.19000000    31.82000000
   O     49.63000000    37.91000000    32.75000000
   H     48.96000000    37.23000000    32.83000000
   H     50.10000000    37.89000000    33.58000000
   O     51.02000000    39.65000000    34.68000000
   H     50.61000000    39.49000000    35.53000000
   H     51.96000000    39.57000000    34.84000000
   O     48.68000000    40.80000000    33.32000000
   H     48.35000000    40.56000000    34.19000000
   H     47.99000000    41.34000000    32.94000000

Ca 1.00



