%chk=loop3.apoCaM-CA-Ng.Init295.run51.water3.chk
%nprocshared=20
%mem=10GB
%nosave
#b3lyp/svp scf=(tight,noincore,xqc) Test 
#IOP(5/87=12) Density=Current Pop=(MK,readradii) iop(6/33=2) iop(6/42=6)

loop3.apoCaM-CA-Ng.Init295.run51.water3 

   0  1 
   C     89.18000000    44.23000000    40.04000000
   C     89.90000000    43.17000000    40.86000000
   O     89.77000000    43.07000000    42.08000000
   H     88.26100000    44.52000000    40.54900000
   H     89.82300000    45.10300000    39.92800000
   H     88.93800000    43.82700000    39.05600000
   N     90.85000000    42.35000000    40.38000000
   C     91.41000000    41.17000000    40.99000000
   C     92.79000000    40.77000000    40.50000000
   O     93.05000000    41.12000000    39.35000000
   C     90.36000000    40.08000000    40.84000000
   C     90.79000000    38.73000000    41.41000000
   O     90.14000000    38.32000000    42.39000000
   O     91.72000000    38.00000000    40.99000000
   H     91.06000000    42.58000000    39.42000000
   H     91.53000000    41.36000000    42.06000000
   H     90.16000000    39.85000000    39.79000000
   H     89.36000000    40.32000000    41.21000000
   N     93.62000000    40.15000000    41.34000000
   C     95.03000000    39.98000000    41.05000000
   C     95.19000000    38.81000000    40.10000000
   O     96.14000000    38.88000000    39.32000000
   C     95.82000000    39.70000000    42.33000000
   C     97.30000000    39.34000000    42.30000000
   C     98.23000000    40.44000000    41.80000000
   C     99.52000000    39.85000000    41.21000000
   N    100.24000000    40.98000000    40.61000000
   H     93.28000000    40.05000000    42.29000000
   H     95.37000000    40.90000000    40.57000000
   H     95.35000000    38.87000000    42.84000000
   H     95.72000000    40.45000000    43.11000000
   H     97.41000000    38.49000000    41.63000000
   H     97.75000000    39.16000000    43.28000000
   H     98.58000000    41.13000000    42.57000000
   H     97.74000000    41.05000000    41.04000000
   H     99.27000000    39.08000000    40.48000000
   H    100.17000000    39.39000000    41.94000000
   H    100.65000000    41.59000000    41.31000000
   H    100.99000000    40.58000000    40.06000000
   H     99.61000000    41.55000000    40.07000000
   N     94.46000000    37.69000000    40.08000000
   C     94.56000000    36.65000000    39.07000000
   C     93.42000000    36.80000000    38.07000000
   O     93.49000000    36.16000000    37.02000000
   C     94.45000000    35.27000000    39.71000000
   C     93.34000000    34.98000000    40.71000000
   O     92.14000000    35.12000000    40.38000000
   O     93.68000000    34.86000000    41.91000000
   H     93.69000000    37.64000000    40.73000000
   H     95.50000000    36.63000000    38.52000000
   H     95.39000000    35.10000000    40.23000000
   H     94.31000000    34.60000000    38.86000000
   N     92.39000000    37.61000000    38.35000000
   C     91.32000000    37.91000000    37.42000000
   C     90.03000000    37.10000000    37.35000000
   O     89.06000000    37.39000000    36.65000000
   H     92.43000000    38.11000000    39.22000000
   H     91.68000000    37.94000000    36.39000000
   H     91.03000000    38.93000000    37.67000000
   N     89.97000000    36.08000000    38.21000000
   C     88.77000000    35.33000000    38.54000000
   C     88.19000000    35.83000000    39.85000000
   O     88.87000000    35.77000000    40.88000000
   C     89.16000000    33.85000000    38.60000000
   C     88.00000000    33.05000000    39.18000000
   N     86.90000000    32.93000000    38.44000000
   O     88.06000000    32.65000000    40.34000000
   H     90.73000000    36.01000000    38.86000000
   H     88.02000000    35.44000000    37.76000000
   H     90.14000000    33.67000000    39.04000000
   H     89.34000000    33.56000000    37.56000000
   H     86.71000000    33.39000000    37.56000000
   H     86.20000000    32.42000000    38.97000000
   N     86.92000000    36.23000000    39.83000000
   C     86.31000000    37.06000000    40.85000000
   C     86.39000000    36.54000000    42.28000000
   O     86.24000000    37.32000000    43.22000000
   H     86.58000000    36.34000000    38.88000000
   H     85.34000000    37.42000000    40.50000000
   H     86.98000000    37.91000000    40.99000000
   N     86.51000000    35.22000000    42.44000000
   C     86.55000000    34.70000000    43.79000000
   C     87.77000000    35.15000000    44.58000000
   O     88.91000000    35.15000000    44.12000000
   C     86.30000000    33.20000000    43.72000000
   C     84.86000000    32.90000000    43.39000000
   C     84.46000000    32.84000000    42.05000000
   C     83.85000000    32.80000000    44.35000000
   C     83.14000000    32.59000000    41.67000000
   C     82.49000000    32.68000000    44.01000000
   C     82.16000000    32.44000000    42.67000000
   O     80.86000000    32.34000000    42.24000000
   H     86.76000000    34.74000000    41.59000000
   H     85.66000000    35.01000000    44.34000000
   H     86.58000000    32.76000000    44.68000000
   H     87.00000000    32.80000000    42.98000000
   H     85.21000000    32.87000000    41.27000000
   H     84.17000000    33.03000000    45.36000000
   H     82.83000000    32.52000000    40.64000000
   H     81.71000000    32.72000000    44.76000000
   H     80.15000000    32.33000000    42.89000000
   N     87.50000000    35.48000000    45.84000000
   C     88.36000000    35.64000000    46.99000000
   C     89.20000000    34.44000000    47.42000000
   O     88.89000000    33.33000000    46.98000000
   C     89.01000000    37.02000000    46.99000000
   C     88.16000000    38.27000000    46.78000000
   C     90.15000000    37.17000000    45.98000000
   C     87.14000000    38.39000000    47.91000000
   H     86.50000000    35.52000000    45.99000000
   H     87.67000000    35.68000000    47.83000000
   H     89.46000000    37.18000000    47.97000000
   H     87.63000000    38.08000000    45.85000000
   H     88.65000000    39.24000000    46.67000000
   H     90.68000000    38.07000000    46.29000000
   H     90.89000000    36.37000000    45.97000000
   H     89.73000000    37.38000000    45.00000000
   H     86.48000000    37.52000000    47.99000000
   H     87.75000000    38.52000000    48.80000000
   H     86.48000000    39.25000000    47.77000000
   N     90.06000000    34.58000000    48.42000000
   C     91.08000000    33.67000000    48.92000000
   C     90.84000000    33.04000000    50.28000000
   O     91.73000000    32.27000000    50.65000000
   C     92.48000000    34.26000000    48.75000000
   O     92.86000000    34.34000000    47.40000000
   H     90.11000000    35.48000000    48.87000000
   H     91.05000000    32.85000000    48.21000000
   H     93.18000000    33.58000000    49.24000000
   H     92.46000000    35.25000000    49.20000000
   H     93.78000000    34.62000000    47.39000000
   N     89.83000000    33.46000000    51.04000000
   C     89.37000000    32.78000000    52.24000000
   C     90.44000000    32.60000000    53.30000000
   O     90.64000000    31.46000000    53.72000000
   C     88.60000000    31.52000000    51.87000000
   H     89.31000000    34.26000000    50.70000000
   H     88.63000000    33.43000000    52.70000000
   H     89.14000000    30.58000000    52.01000000
   H     87.73000000    31.29000000    52.49000000
   H     88.30000000    31.61000000    50.83000000
   N     91.14000000    33.60000000    53.84000000
   C     91.02000000    35.04000000    53.68000000
   C     90.92000000    35.85000000    54.96000000
   O     91.31000000    35.35000000    56.01000000
   C     92.17000000    35.38000000    52.74000000
   H     91.86000000    33.32000000    54.49000000
   H     90.13000000    35.21000000    53.06000000
   H     92.32000000    36.46000000    52.78000000
   H     93.13000000    35.03000000    53.13000000
   H     91.94000000    35.02000000    51.74000000
   N     90.33000000    37.05000000    54.98000000
   C     89.96000000    37.81000000    53.80000000
   C     88.48000000    38.15000000    53.77000000
   O     87.81000000    38.28000000    52.74000000
   C     90.73000000    39.12000000    53.94000000
   C     90.62000000    40.07000000    52.75000000
   C     91.62000000    41.21000000    52.92000000
   O     91.22000000    42.18000000    53.60000000
   O     92.77000000    41.17000000    52.43000000
   H     90.24000000    37.51000000    55.87000000
   H     90.19000000    37.34000000    52.85000000
   H     91.78000000    38.98000000    54.21000000
   H     90.28000000    39.68000000    54.76000000
   H     89.60000000    40.46000000    52.73000000
   H     90.76000000    39.67000000    51.74000000
   N     87.85000000    38.36000000    54.93000000
   C     86.44000000    38.61000000    55.14000000
   H     85.86900000    37.72600000    54.85600000
   H     86.26300000    38.83400000    56.19200000
   H     86.12600000    39.45700000    54.53000000
   H     88.41000000    38.30000000    55.77000000
  Ca     91.15000000    35.91000000    42.60000000
   O     91.96000000    34.48000000    44.61000000
   H     92.10000000    33.58000000    44.32000000
   H     92.49000000    34.56000000    45.40000000
   O     90.37000000    33.39000000    42.20000000
   H     90.21000000    32.79000000    42.93000000
   H     89.54000000    33.40000000    41.72000000
   O     93.46000000    37.14000000    43.66000000
   H     94.38000000    36.87000000    43.68000000
   H     93.43000000    37.94000000    44.19000000

Ca 1.00



