%chk=loop1.holoCaM-CaMKII.run90.water2.chk
%nprocshared=20
%mem=10GB
%nosave
#b3lyp/svp scf=(tight,noincore,xqc) Test 
#IOP(5/87=12) Density=Current Pop=(MK,readradii) iop(6/33=2) iop(6/42=6)

loop1.holoCaM-CaMKII.run90.water2 

   0  1 
   C     57.17000000    23.67000000   -15.50500000
   C     57.40000000    22.85000000   -16.77500000
   O     56.50000000    22.59000000   -17.57500000
   H     56.12800000    23.57800000   -15.19700000
   H     57.81700000    23.29900000   -14.71000000
   H     57.39900000    24.71700000   -15.70200000
   N     58.59000000    22.30000000   -16.97500000
   C     58.95000000    21.33000000   -17.99500000
   C     58.44000000    19.96000000   -17.57500000
   O     59.17000000    19.04000000   -17.19500000
   C     60.44000000    21.31000000   -18.32500000
   C     60.80000000    20.49000000   -19.55500000
   O     61.92000000    19.96000000   -19.69500000
   O     59.88000000    20.22000000   -20.35500000
   H     59.36000000    22.60000000   -16.38500000
   H     58.35000000    21.52000000   -18.88500000
   H     60.98000000    20.99000000   -17.43500000
   H     60.65000000    22.36000000   -18.52500000
   N     57.12000000    19.82000000   -17.59500000
   C     56.54000000    18.53000000   -17.23500000
   C     56.92000000    17.42000000   -18.20500000
   O     57.26000000    16.33000000   -17.76500000
   C     55.09000000    18.68000000   -16.78500000
   C     54.84000000    19.59000000   -15.58500000
   C     53.34000000    19.53000000   -15.28500000
   C     52.87000000    20.15000000   -13.96500000
   N     53.02000000    21.61000000   -14.02500000
   H     56.56000000    20.57000000   -17.97500000
   H     56.99000000    18.11000000   -16.33500000
   H     54.72000000    17.69000000   -16.55500000
   H     54.57000000    19.08000000   -17.65500000
   H     55.16000000    20.59000000   -15.84500000
   H     55.40000000    19.13000000   -14.77500000
   H     53.18000000    18.45000000   -15.28500000
   H     52.82000000    20.02000000   -16.09500000
   H     53.47000000    19.71000000   -13.16500000
   H     51.79000000    20.10000000   -13.91500000
   H     53.01000000    21.92000000   -14.98500000
   H     52.32000000    22.13000000   -13.50500000
   H     53.90000000    21.94000000   -13.65500000
   N     57.02000000    17.67000000   -19.51500000
   C     57.28000000    16.63000000   -20.47500000
   C     58.76000000    16.30000000   -20.66500000
   O     59.05000000    15.32000000   -21.34500000
   C     56.49000000    16.88000000   -21.76500000
   C     56.80000000    18.20000000   -22.45500000
   O     57.66000000    19.05000000   -22.12500000
   O     56.12000000    18.38000000   -23.48500000
   H     56.50000000    18.48000000   -19.84500000
   H     56.91000000    15.69000000   -20.06500000
   H     55.44000000    16.70000000   -21.51500000
   H     56.72000000    16.09000000   -22.47500000
   N     59.69000000    17.06000000   -20.08500000
   C     61.06000000    16.77000000   -19.72500000
   C     61.99000000    16.92000000   -20.92500000
   O     62.93000000    16.13000000   -20.98500000
   H     59.30000000    17.97000000   -19.87500000
   H     61.07000000    15.75000000   -19.33500000
   H     61.36000000    17.44000000   -18.91500000
   N     61.81000000    17.85000000   -21.86500000
   C     62.53000000    18.04000000   -23.10500000
   C     63.66000000    19.05000000   -22.95500000
   O     64.35000000    19.34000000   -23.93500000
   C     61.65000000    18.39000000   -24.30500000
   C     60.87000000    19.68000000   -24.09500000
   O     61.28000000    20.61000000   -23.37500000
   O     59.69000000    19.76000000   -24.51500000
   H     61.02000000    18.47000000   -21.75500000
   H     63.06000000    17.10000000   -23.27500000
   H     61.04000000    17.57000000   -24.66500000
   H     62.32000000    18.58000000   -25.14500000
   N     63.82000000    19.61000000   -21.75500000
   C     64.76000000    20.61000000   -21.28500000
   C     64.50000000    22.04000000   -21.74500000
   O     65.40000000    22.88000000   -21.68500000
   H     63.07000000    19.45000000   -21.10500000
   H     65.79000000    20.37000000   -21.55500000
   H     64.69000000    20.65000000   -20.20500000
   N     63.29000000    22.27000000   -22.24500000
   C     62.80000000    23.62000000   -22.42500000
   C     61.44000000    23.84000000   -21.77500000
   O     60.59000000    22.98000000   -21.55500000
   C     62.71000000    23.95000000   -23.91500000
   C     63.96000000    24.28000000   -24.71500000
   O     62.13000000    22.86000000   -24.60500000
   H     62.58000000    21.55000000   -22.22500000
   H     63.52000000    24.26000000   -21.90500000
   H     61.96000000    24.74000000   -23.98500000
   H     61.97000000    22.10000000   -24.03500000
   H     64.55000000    25.00000000   -24.15500000
   H     64.62000000    23.42000000   -24.86500000
   H     63.68000000    24.78000000   -25.64500000
   N     61.14000000    25.14000000   -21.66500000
   C     59.85000000    25.65000000   -21.25500000
   C     59.30000000    26.48000000   -22.40500000
   O     59.98000000    27.27000000   -23.04500000
   C     60.00000000    26.40000000   -19.93500000
   C     60.31000000    25.43000000   -18.79500000
   C     58.73000000    27.20000000   -19.63500000
   C     60.61000000    26.10000000   -17.45500000
   H     61.83000000    25.84000000   -21.87500000
   H     59.12000000    24.88000000   -21.05500000
   H     60.78000000    27.10000000   -20.23500000
   H     61.21000000    24.83000000   -18.88500000
   H     59.54000000    24.67000000   -18.63500000
   H     58.56000000    27.94000000   -20.41500000
   H     57.89000000    26.54000000   -19.84500000
   H     58.70000000    27.77000000   -18.70500000
   H     59.81000000    26.75000000   -17.10500000
   H     60.92000000    25.39000000   -16.68500000
   H     61.52000000    26.67000000   -17.60500000
   N     58.04000000    26.27000000   -22.81500000
   C     57.34000000    27.02000000   -23.83500000
   C     56.36000000    27.98000000   -23.16500000
   O     56.13000000    27.81000000   -21.97500000
   C     56.53000000    26.10000000   -24.74500000
   C     57.36000000    25.34000000   -25.77500000
   O     55.80000000    25.09000000   -24.08500000
   H     57.52000000    25.46000000   -22.51500000
   H     58.01000000    27.68000000   -24.38500000
   H     55.85000000    26.74000000   -25.30500000
   H     56.35000000    24.55000000   -23.51500000
   H     58.10000000    24.75000000   -25.23500000
   H     56.87000000    24.62000000   -26.42500000
   H     57.82000000    26.10000000   -26.40500000
   N     55.69000000    28.89000000   -23.87500000
   C     54.68000000    29.77000000   -23.32500000
   C     53.46000000    28.98000000   -22.88500000
   O     52.93000000    29.36000000   -21.84500000
   C     54.30000000    30.79000000   -24.39500000
   C     55.28000000    31.94000000   -24.60500000
   O     54.13000000    30.24000000   -25.68500000
   H     55.88000000    28.95000000   -24.86500000
   H     55.10000000    30.32000000   -22.47500000
   H     53.33000000    31.22000000   -24.15500000
   H     53.62000000    30.86000000   -26.20500000
   H     54.82000000    32.72000000   -25.21500000
   H     55.65000000    32.22000000   -23.61500000
   H     56.16000000    31.42000000   -24.98500000
   N     53.07000000    27.94000000   -23.63500000
   C     52.00000000    27.02000000   -23.31500000
   C     52.19000000    26.45000000   -21.91500000
   O     51.31000000    26.49000000   -21.05500000
   C     51.95000000    25.87000000   -24.30500000
   C     50.72000000    25.00000000   -24.07500000
   C     50.44000000    24.10000000   -25.27500000
   C     49.62000000    22.89000000   -24.81500000
   N     49.32000000    22.02000000   -25.96500000
   H     53.38000000    27.90000000   -24.59500000
   H     51.11000000    27.64000000   -23.40500000
   H     52.91000000    25.36000000   -24.16500000
   H     52.00000000    26.20000000   -25.34500000
   H     49.83000000    25.62000000   -23.91500000
   H     50.92000000    24.32000000   -23.24500000
   H     51.34000000    23.65000000   -25.67500000
   H     49.95000000    24.73000000   -26.01500000
   H     48.71000000    23.26000000   -24.35500000
   H     50.10000000    22.36000000   -23.99500000
   H     50.16000000    21.58000000   -26.29500000
   H     48.67000000    21.32000000   -25.62500000
   H     48.84000000    22.50000000   -26.71500000
   N     53.44000000    26.17000000   -21.56500000
   C     53.82000000    25.64000000   -20.26500000
   C     53.93000000    26.66000000   -19.14500000
   O     53.76000000    26.28000000   -17.98500000
   C     55.11000000    24.83000000   -20.32500000
   C     54.93000000    23.57000000   -21.16500000
   C     56.26000000    22.98000000   -21.61500000
   O     56.64000000    21.82000000   -21.30500000
   O     57.03000000    23.67000000   -22.31500000
   H     54.20000000    26.36000000   -22.20500000
   H     53.13000000    24.91000000   -19.83500000
   H     55.49000000    24.48000000   -19.35500000
   H     55.79000000    25.50000000   -20.83500000
   H     54.30000000    23.70000000   -22.04500000
   H     54.36000000    22.87000000   -20.56500000
   N     54.20000000    27.94000000   -19.41500000
   C     53.96000000    28.97000000   -18.42500000
   H     52.93300000    28.89600000   -18.06600000
   H     54.64700000    28.83800000   -17.58900000
   H     54.11800000    29.95000000   -18.87400000
   H     54.30000000    28.18000000   -20.39500000
  Ca     58.78000000    21.25000000   -22.58500000
   O     56.67000000    21.09000000   -24.17500000
   H     56.33000000    20.19000000   -24.19500000
   H     55.95000000    21.63000000   -24.50500000
   O     59.48000000    22.66000000   -24.77500000
   H     60.30000000    23.06000000   -25.07500000
   H     59.05000000    22.37000000   -25.57500000

Ca 1.00



