%chk=loop3.holoCaM-CaMKII.run77.water2.chk
%nprocshared=20
%mem=10GB
%nosave
#b3lyp/svp scf=(tight,noincore,xqc) Test 
#IOP(5/87=12) Density=Current Pop=(MK,readradii) iop(6/33=2) iop(6/42=6)

loop3.holoCaM-CaMKII.run77.water2 

   0  1 
   C     27.38000000    38.46000000    95.12800000
   C     28.09000000    37.35000000    94.37800000
   O     28.59000000    37.45000000    93.25800000
   H     26.39300000    38.11500000    95.43700000
   H     27.96100000    38.73400000    96.00900000
   H     27.27400000    39.32800000    94.47800000
   N     28.19000000    36.26000000    95.13800000
   C     28.74000000    35.03000000    94.60800000
   C     27.75000000    34.52000000    93.56800000
   O     26.61000000    34.17000000    93.83800000
   C     29.01000000    34.02000000    95.70800000
   C     29.83000000    32.78000000    95.36800000
   O     30.16000000    32.06000000    96.32800000
   O     30.14000000    32.52000000    94.17800000
   H     28.01000000    36.30000000    96.13800000
   H     29.66000000    35.27000000    94.06800000
   H     28.08000000    33.74000000    96.19800000
   H     29.62000000    34.62000000    96.39800000
   N     28.20000000    34.44000000    92.30800000
   C     27.37000000    34.14000000    91.15800000
   C     27.07000000    32.65000000    91.07800000
   O     25.95000000    32.19000000    90.84800000
   C     28.11000000    34.70000000    89.94800000
   C     27.26000000    34.76000000    88.67800000
   C     28.09000000    35.03000000    87.42800000
   C     27.17000000    35.31000000    86.24800000
   N     27.86000000    35.47000000    84.95800000
   H     29.15000000    34.74000000    92.10800000
   H     26.43000000    34.62000000    91.40800000
   H     28.93000000    34.01000000    89.74800000
   H     28.42000000    35.71000000    90.22800000
   H     26.50000000    35.53000000    88.77800000
   H     26.71000000    33.82000000    88.60800000
   H     28.58000000    34.08000000    87.19800000
   H     28.79000000    35.85000000    87.58800000
   H     26.65000000    36.26000000    86.32800000
   H     26.40000000    34.54000000    86.19800000
   H     27.23000000    35.73000000    84.20800000
   H     28.51000000    36.23000000    85.03800000
   H     28.40000000    34.69000000    84.60800000
   N     28.03000000    31.76000000    91.30800000
   C     27.85000000    30.32000000    91.34800000
   C     27.70000000    29.74000000    92.74800000
   O     27.03000000    28.73000000    92.96800000
   C     29.06000000    29.65000000    90.71800000
   C     30.37000000    30.24000000    91.22800000
   O     30.73000000    31.36000000    90.78800000
   O     30.92000000    29.70000000    92.20800000
   H     28.94000000    32.14000000    91.54800000
   H     26.96000000    30.07000000    90.76800000
   H     29.12000000    29.89000000    89.65800000
   H     29.06000000    28.59000000    90.99800000
   N     28.14000000    30.43000000    93.79800000
   C     27.99000000    29.93000000    95.14800000
   C     29.02000000    28.93000000    95.67800000
   O     28.73000000    28.06000000    96.48800000
   H     28.60000000    31.32000000    93.62800000
   H     27.03000000    29.43000000    95.23800000
   H     28.03000000    30.80000000    95.78800000
   N     30.25000000    29.11000000    95.18800000
   C     31.38000000    28.32000000    95.63800000
   C     32.00000000    28.86000000    96.92800000
   O     32.72000000    28.12000000    97.58800000
   C     32.43000000    28.18000000    94.53800000
   C     33.35000000    29.39000000    94.45800000
   N     34.59000000    29.22000000    93.98800000
   O     32.92000000    30.52000000    94.67800000
   H     30.49000000    29.83000000    94.52800000
   H     31.07000000    27.31000000    95.89800000
   H     31.94000000    28.04000000    93.57800000
   H     33.01000000    27.28000000    94.72800000
   H     34.93000000    28.30000000    93.74800000
   H     35.18000000    30.03000000    93.88800000
   N     31.81000000    30.11000000    97.35800000
   C     32.25000000    30.72000000    98.59800000
   C     33.28000000    31.80000000    98.31800000
   O     33.97000000    32.27000000    99.21800000
   H     31.12000000    30.60000000    96.80800000
   H     32.59000000    30.02000000    99.34800000
   H     31.37000000    31.21000000    99.01800000
   N     33.47000000    32.27000000    97.07800000
   C     34.41000000    33.27000000    96.61800000
   C     33.87000000    34.20000000    95.53800000
   O     33.20000000    33.72000000    94.61800000
   C     35.72000000    32.64000000    96.15800000
   C     36.41000000    31.69000000    97.10800000
   C     37.25000000    32.23000000    98.08800000
   C     36.19000000    30.31000000    96.99800000
   C     37.86000000    31.39000000    99.01800000
   C     36.89000000    29.50000000    97.90800000
   C     37.76000000    29.99000000    98.90800000
   O     38.43000000    29.19000000    99.77800000
   H     33.11000000    31.63000000    96.37800000
   H     34.63000000    33.90000000    97.47800000
   H     36.43000000    33.42000000    95.85800000
   H     35.45000000    32.09000000    95.25800000
   H     37.68000000    33.22000000    97.98800000
   H     35.46000000    29.98000000    96.27800000
   H     38.46000000    31.89000000    99.76800000
   H     36.76000000    28.43000000    97.83800000
   H     39.20000000    29.66000000   100.10800000
   N     34.24000000    35.48000000    95.50800000
   C     33.90000000    36.44000000    94.47800000
   C     35.21000000    36.78000000    93.77800000
   O     36.32000000    36.84000000    94.28800000
   C     33.20000000    37.63000000    95.13800000
   C     31.86000000    37.27000000    95.77800000
   C     32.82000000    38.65000000    94.06800000
   C     31.56000000    38.19000000    96.96800000
   H     34.93000000    35.78000000    96.17800000
   H     33.23000000    36.09000000    93.69800000
   H     33.89000000    38.04000000    95.86800000
   H     31.98000000    36.28000000    96.20800000
   H     31.05000000    37.18000000    95.05800000
   H     32.48000000    39.57000000    94.53800000
   H     33.72000000    39.01000000    93.56800000
   H     32.10000000    38.18000000    93.38800000
   H     32.35000000    38.06000000    97.69800000
   H     31.52000000    39.23000000    96.63800000
   H     30.65000000    37.84000000    97.44800000
   N     35.04000000    37.06000000    92.47800000
   C     36.07000000    37.60000000    91.60800000
   C     35.67000000    38.93000000    90.97800000
   O     34.52000000    39.35000000    91.03800000
   C     36.32000000    36.52000000    90.55800000
   O     35.33000000    36.47000000    89.55800000
   H     34.09000000    36.98000000    92.13800000
   H     37.00000000    37.77000000    92.15800000
   H     36.42000000    35.52000000    90.95800000
   H     37.25000000    36.73000000    90.02800000
   H     35.26000000    35.57000000    89.22800000
   N     36.65000000    39.59000000    90.35800000
   C     36.40000000    40.78000000    89.57800000
   C     35.23000000    40.50000000    88.64800000
   O     34.28000000    41.28000000    88.76800000
   C     37.69000000    41.22000000    88.88800000
   H     37.58000000    39.19000000    90.42800000
   H     36.06000000    41.62000000    90.18800000
   H     37.55000000    42.00000000    88.13800000
   H     38.37000000    41.60000000    89.65800000
   H     38.18000000    40.31000000    88.55800000
   N     35.17000000    39.44000000    87.84800000
   C     34.06000000    39.18000000    86.94800000
   C     32.69000000    38.94000000    87.56800000
   O     31.76000000    39.57000000    87.06800000
   C     34.41000000    37.97000000    86.07800000
   H     36.01000000    38.90000000    87.67800000
   H     34.04000000    40.00000000    86.22800000
   H     34.53000000    37.06000000    86.66800000
   H     33.57000000    37.75000000    85.41800000
   H     35.31000000    38.14000000    85.49800000
   N     32.61000000    38.26000000    88.70800000
   C     31.39000000    38.12000000    89.47800000
   C     30.91000000    39.47000000    89.98800000
   O     29.70000000    39.70000000    90.02800000
   C     31.62000000    37.06000000    90.54800000
   C     31.59000000    35.63000000    90.01800000
   C     31.88000000    34.58000000    91.07800000
   O     32.95000000    33.93000000    91.03800000
   O     31.11000000    34.31000000    92.02800000
   H     33.44000000    37.82000000    89.07800000
   H     30.64000000    37.71000000    88.78800000
   H     30.74000000    37.14000000    91.18800000
   H     32.42000000    37.45000000    91.16800000
   H     32.38000000    35.66000000    89.26800000
   H     30.66000000    35.41000000    89.49800000
   N     31.82000000    40.34000000    90.43800000
   C     31.48000000    41.64000000    90.97800000
   H     30.48900000    41.59700000    91.42900000
   H     32.21100000    41.92200000    91.73500000
   H     31.48200000    42.37900000    90.17700000
   H     32.79000000    40.07000000    90.44800000
  Ca     32.28000000    32.11000000    92.62000000
   O     33.72000000    30.29000000    91.04000000
   H     34.64000000    30.02000000    91.07000000
   H     33.45000000    30.14000000    90.13000000
   O     35.09000000    32.22000000    92.63000000
   H     35.29000000    32.29000000    91.69000000
   H     35.71000000    32.81000000    93.05000000

Ca 1.00



