%chk=loop2.apoCaM-CA-Ng.Init293.run46.water5.chk
%nprocshared=20
%mem=10GB
%nosave
#b3lyp/svp scf=(tight,noincore,xqc) Test 
#IOP(5/87=12) Density=Current Pop=(MK,readradii) iop(6/33=2) iop(6/42=6)

loop2.apoCaM-CA-Ng.Init293.run46.water5 

   -2  1 
   C     59.92000000    87.50000000   114.73000000
   C     59.46000000    87.02000000   116.10000000
   O     58.40000000    87.47000000   116.53000000
   H     60.94700000    87.17900000   114.55900000
   H     59.27500000    87.07600000   113.96000000
   H     59.86900000    88.58800000   114.69000000
   N     60.26000000    86.21000000   116.80000000
   C     59.97000000    85.56000000   118.06000000
   C     60.26000000    86.45000000   119.26000000
   O     59.49000000    86.53000000   120.21000000
   C     60.64000000    84.20000000   118.23000000
   C     60.55000000    83.41000000   119.53000000
   O     61.57000000    82.83000000   119.97000000
   O     59.50000000    83.27000000   120.19000000
   H     61.11000000    85.93000000   116.34000000
   H     58.89000000    85.42000000   118.16000000
   H     61.69000000    84.26000000   117.98000000
   H     60.25000000    83.45000000   117.55000000
   N     61.38000000    87.17000000   119.33000000
   C     61.67000000    87.93000000   120.53000000
   C     60.71000000    89.03000000   120.98000000
   O     60.68000000    89.39000000   122.15000000
   C     62.09000000    87.05000000   121.70000000
   H     62.05000000    87.10000000   118.57000000
   H     62.61000000    88.45000000   120.29000000
   H     62.57000000    87.67000000   122.46000000
   H     61.28000000    86.46000000   122.13000000
   H     62.87000000    86.39000000   121.33000000
   N     59.95000000    89.49000000   119.98000000
   C     58.77000000    90.33000000   120.03000000
   C     57.68000000    89.86000000   120.98000000
   O     56.84000000    90.65000000   121.41000000
   C     59.18000000    91.79000000   120.21000000
   C     60.25000000    92.32000000   119.26000000
   O     61.30000000    92.77000000   119.76000000
   O     60.06000000    92.25000000   118.03000000
   H     60.24000000    89.15000000   119.07000000
   H     58.28000000    90.27000000   119.06000000
   H     59.58000000    91.96000000   121.21000000
   H     58.28000000    92.40000000   120.12000000
   N     57.61000000    88.54000000   121.16000000
   C     56.55000000    87.92000000   121.92000000
   C     55.14000000    88.32000000   121.54000000
   O     54.75000000    88.33000000   120.37000000
   H     58.18000000    87.92000000   120.59000000
   H     56.72000000    88.27000000   122.94000000
   H     56.73000000    86.84000000   121.92000000
   N     54.32000000    88.63000000   122.55000000
   C     52.95000000    89.09000000   122.38000000
   C     52.15000000    88.12000000   121.52000000
   O     51.15000000    88.51000000   120.93000000
   C     52.98000000    90.51000000   121.83000000
   C     53.57000000    91.46000000   122.86000000
   N     53.31000000    92.77000000   122.77000000
   O     54.35000000    91.14000000   123.75000000
   H     54.60000000    88.68000000   123.51000000
   H     52.54000000    89.07000000   123.38000000
   H     52.01000000    90.86000000   121.48000000
   H     53.63000000    90.61000000   120.96000000
   H     52.74000000    93.19000000   122.05000000
   H     53.78000000    93.28000000   123.51000000
   N     52.48000000    86.83000000   121.44000000
   C     51.92000000    85.70000000   120.72000000
   C     52.34000000    85.58000000   119.27000000
   O     51.95000000    84.65000000   118.57000000
   H     53.23000000    86.50000000   122.04000000
   H     50.84000000    85.57000000   120.80000000
   H     52.40000000    84.87000000   121.22000000
   N     53.25000000    86.41000000   118.75000000
   C     53.92000000    86.14000000   117.49000000
   C     53.69000000    87.25000000   116.48000000
   O     53.32000000    88.39000000   116.76000000
   C     55.43000000    86.15000000   117.69000000
   C     55.84000000    85.13000000   118.75000000
   O     56.21000000    85.76000000   116.58000000
   H     53.75000000    86.96000000   119.44000000
   H     53.69000000    85.14000000   117.11000000
   H     55.87000000    87.09000000   118.04000000
   H     57.01000000    86.27000000   116.67000000
   H     55.47000000    84.14000000   118.46000000
   H     56.92000000    85.07000000   118.82000000
   H     55.52000000    85.48000000   119.73000000
   N     53.92000000    86.90000000   115.21000000
   C     53.79000000    87.86000000   114.12000000
   C     54.68000000    89.08000000   114.30000000
   O     55.85000000    88.94000000   114.67000000
   C     53.98000000    87.13000000   112.80000000
   C     55.43000000    86.71000000   112.58000000
   C     53.13000000    85.86000000   112.79000000
   C     55.67000000    86.14000000   111.19000000
   H     54.33000000    86.01000000   114.97000000
   H     52.75000000    88.17000000   114.07000000
   H     53.72000000    87.85000000   112.03000000
   H     55.88000000    85.98000000   113.26000000
   H     56.01000000    87.63000000   112.54000000
   H     52.10000000    86.05000000   113.10000000
   H     53.07000000    85.68000000   111.71000000
   H     53.60000000    85.07000000   113.36000000
   H     55.34000000    86.80000000   110.39000000
   H     56.74000000    85.97000000   111.03000000
   H     55.10000000    85.22000000   111.05000000
   N     54.09000000    90.25000000   114.06000000
   C     54.73000000    91.53000000   114.32000000
   C     53.66000000    92.39000000   114.97000000
   O     52.82000000    93.13000000   114.45000000
   C     55.45000000    92.07000000   113.09000000
   C     56.17000000    93.36000000   113.45000000
   O     55.99000000    94.39000000   112.76000000
   O     56.89000000    93.36000000   114.47000000
   H     53.14000000    90.23000000   113.74000000
   H     55.52000000    91.34000000   115.04000000
   H     54.75000000    92.25000000   112.27000000
   H     56.20000000    91.38000000   112.71000000
   N     53.45000000    92.18000000   116.27000000
   C     52.50000000    92.90000000   117.10000000
   C     51.06000000    93.11000000   116.68000000
   O     50.56000000    94.23000000   116.70000000
   C     52.59000000    92.50000000   118.57000000
   C     51.78000000    93.40000000   119.48000000
   C     50.55000000    92.94000000   119.96000000
   C     52.30000000    94.60000000   119.98000000
   C     50.00000000    93.40000000   121.16000000
   C     51.72000000    95.10000000   121.15000000
   C     50.62000000    94.50000000   121.77000000
   H     54.13000000    91.60000000   116.75000000
   H     52.90000000    93.92000000   117.09000000
   H     53.60000000    92.61000000   118.97000000
   H     52.15000000    91.50000000   118.57000000
   H     50.10000000    92.07000000   119.50000000
   H     53.12000000    95.12000000   119.50000000
   H     49.18000000    92.91000000   121.67000000
   H     52.16000000    95.96000000   121.64000000
   H     50.24000000    94.86000000   122.71000000
   N     50.30000000    92.01000000   116.59000000
   C     50.66000000    90.64000000   116.27000000
   C     50.48000000    90.24000000   114.81000000
   O     49.96000000    89.18000000   114.50000000
   C     49.77000000    89.88000000   117.26000000
   C     48.42000000    90.58000000   117.33000000
   C     48.89000000    91.97000000   116.89000000
   H     51.71000000    90.39000000   116.42000000
   H     49.59000000    88.83000000   117.02000000
   H     50.19000000    89.92000000   118.27000000
   H     47.74000000    90.16000000   116.58000000
   H     48.04000000    90.52000000   118.35000000
   H     48.36000000    92.21000000   115.97000000
   H     48.51000000    92.73000000   117.57000000
   N     50.59000000    91.19000000   113.87000000
   C     50.12000000    91.09000000   112.51000000
   C     51.05000000    90.31000000   111.58000000
   O     52.21000000    90.70000000   111.48000000
   C     49.77000000    92.45000000   111.92000000
   C     48.68000000    93.12000000   112.75000000
   C     48.30000000    94.52000000   112.31000000
   O     47.35000000    94.68000000   111.51000000
   O     49.06000000    95.49000000   112.55000000
   H     50.93000000    92.08000000   114.21000000
   H     49.19000000    90.51000000   112.58000000
   H     49.44000000    92.37000000   110.89000000
   H     50.64000000    93.10000000   112.06000000
   H     49.05000000    93.19000000   113.77000000
   H     47.83000000    92.43000000   112.78000000
   N     50.50000000    89.35000000   110.83000000
   C     51.24000000    88.80000000   109.71000000
   H     52.23100000    88.49400000   110.04500000
   H     50.70900000    87.93500000   109.31200000
   H     51.33800000    89.55700000   108.93200000
   H     49.51000000    89.17000000   110.90000000
  Ca     59.13000000    92.58000000   115.57900000
   O     57.92000000    90.30000000   115.86900000
   H     58.53000000    89.70000000   116.30900000
   H     57.24000000    89.74000000   115.50900000
   O     58.65000000    95.10000000   116.58900000
   H     59.28000000    95.61000000   117.08900000
   H     57.84000000    95.61000000   116.62900000
   O     59.38000000    94.11000000   113.39900000
   H     59.48000000    93.64000000   112.56900000
   H     58.46000000    94.37000000   113.42900000
   O     60.10000000    91.18000000   113.48900000
   H     59.97000000    91.10000000   112.54900000
   H     61.04000000    91.04000000   113.60900000
   O     61.70000000    93.11000000   115.45900000
   H     62.10000000    93.07000000   116.32900000
   H     62.37000000    93.49000000   114.89900000

Ca 1.00



