%chk=loop1.holoCaM-CaMKII.run95.water2.chk
%nprocshared=20
%mem=10GB
%nosave
#b3lyp/svp scf=(tight,noincore,xqc) Test 
#IOP(5/87=12) Density=Current Pop=(MK,readradii) iop(6/33=2) iop(6/42=6)

loop1.holoCaM-CaMKII.run95.water2 

   0  1 
   C     46.66000000    13.37000000   -12.91000000
   C     46.41000000    12.23000000   -13.89000000
   O     45.28000000    11.74000000   -13.91000000
   H     47.47500000    13.99300000   -13.27800000
   H     45.75700000    13.97300000   -12.81600000
   H     46.92700000    12.96000000   -11.93600000
   N     47.45000000    11.70000000   -14.54000000
   C     47.36000000    10.50000000   -15.33000000
   C     47.34000000     9.22000000   -14.50000000
   O     48.35000000     8.74000000   -13.99000000
   C     48.49000000    10.51000000   -16.36000000
   C     48.46000000     9.30000000   -17.29000000
   O     49.48000000     9.04000000   -17.96000000
   O     47.35000000     8.73000000   -17.45000000
   H     48.38000000    12.04000000   -14.32000000
   H     46.47000000    10.61000000   -15.95000000
   H     49.45000000    10.67000000   -15.88000000
   H     48.39000000    11.36000000   -17.03000000
   N     46.08000000     8.92000000   -14.21000000
   C     45.62000000     7.86000000   -13.33000000
   C     45.82000000     6.42000000   -13.81000000
   O     46.02000000     5.57000000   -12.95000000
   C     44.14000000     7.96000000   -12.98000000
   C     43.81000000     8.58000000   -11.62000000
   C     42.35000000     9.00000000   -11.54000000
   C     42.04000000     9.47000000   -10.12000000
   N     42.63000000    10.79000000    -9.82000000
   H     45.40000000     9.58000000   -14.56000000
   H     46.18000000     7.90000000   -12.40000000
   H     43.65000000     6.99000000   -13.06000000
   H     43.63000000     8.56000000   -13.73000000
   H     44.34000000     9.52000000   -11.49000000
   H     44.06000000     7.94000000   -10.77000000
   H     41.70000000     8.13000000   -11.65000000
   H     42.07000000     9.73000000   -12.30000000
   H     42.42000000     8.74000000    -9.42000000
   H     40.95000000     9.45000000   -10.03000000
   H     43.61000000    10.72000000    -9.58000000
   H     42.52000000    11.46000000   -10.57000000
   H     42.14000000    11.25000000    -9.07000000
   N     45.77000000     6.24000000   -15.13000000
   C     45.90000000     5.00000000   -15.87000000
   C     47.15000000     4.94000000   -16.73000000
   O     47.48000000     3.87000000   -17.24000000
   C     44.70000000     4.48000000   -16.66000000
   C     43.98000000     5.55000000   -17.48000000
   O     42.76000000     5.48000000   -17.75000000
   O     44.61000000     6.55000000   -17.88000000
   H     45.48000000     6.98000000   -15.75000000
   H     45.97000000     4.25000000   -15.08000000
   H     44.00000000     4.27000000   -15.86000000
   H     44.99000000     3.56000000   -17.16000000
   N     47.99000000     5.98000000   -16.76000000
   C     49.37000000     5.86000000   -17.19000000
   C     49.57000000     5.43000000   -18.64000000
   O     50.11000000     4.39000000   -19.01000000
   H     47.65000000     6.80000000   -16.28000000
   H     49.86000000     5.13000000   -16.55000000
   H     49.90000000     6.79000000   -16.99000000
   N     49.12000000     6.36000000   -19.49000000
   C     49.23000000     6.32000000   -20.93000000
   C     49.92000000     7.53000000   -21.56000000
   O     50.35000000     7.60000000   -22.70000000
   C     47.84000000     6.18000000   -21.55000000
   C     46.91000000     7.22000000   -20.94000000
   O     45.76000000     6.90000000   -20.56000000
   O     47.23000000     8.42000000   -20.80000000
   H     48.85000000     7.23000000   -19.05000000
   H     49.86000000     5.50000000   -21.29000000
   H     47.53000000     5.16000000   -21.34000000
   H     47.86000000     6.23000000   -22.64000000
   N     50.22000000     8.51000000   -20.70000000
   C     50.96000000     9.71000000   -21.04000000
   C     50.10000000    10.81000000   -21.64000000
   O     50.68000000    11.67000000   -22.30000000
   H     49.78000000     8.52000000   -19.79000000
   H     51.91000000     9.46000000   -21.51000000
   H     51.24000000    10.07000000   -20.06000000
   N     48.80000000    10.82000000   -21.33000000
   C     47.79000000    11.82000000   -21.61000000
   C     46.81000000    11.99000000   -20.46000000
   O     46.61000000    11.06000000   -19.69000000
   C     47.06000000    11.39000000   -22.87000000
   C     47.90000000    11.50000000   -24.14000000
   O     46.51000000    10.09000000   -22.91000000
   H     48.53000000     9.93000000   -20.92000000
   H     48.28000000    12.77000000   -21.85000000
   H     46.27000000    12.12000000   -23.00000000
   H     46.95000000     9.61000000   -22.20000000
   H     47.32000000    11.42000000   -25.07000000
   H     48.43000000    12.43000000   -24.34000000
   H     48.60000000    10.66000000   -24.14000000
   N     46.25000000    13.17000000   -20.18000000
   C     45.33000000    13.52000000   -19.11000000
   C     44.07000000    13.98000000   -19.82000000
   O     44.21000000    14.85000000   -20.68000000
   C     45.87000000    14.64000000   -18.22000000
   C     47.16000000    14.22000000   -17.52000000
   C     44.90000000    15.31000000   -17.26000000
   C     47.94000000    15.44000000   -17.05000000
   H     46.45000000    13.90000000   -20.85000000
   H     45.03000000    12.65000000   -18.53000000
   H     46.12000000    15.45000000   -18.90000000
   H     47.78000000    13.56000000   -18.12000000
   H     46.87000000    13.61000000   -16.66000000
   H     45.34000000    16.10000000   -16.65000000
   H     44.10000000    15.70000000   -17.90000000
   H     44.51000000    14.57000000   -16.55000000
   H     48.05000000    16.13000000   -17.89000000
   H     47.42000000    15.92000000   -16.22000000
   H     48.96000000    15.14000000   -16.77000000
   N     42.92000000    13.48000000   -19.37000000
   C     41.60000000    13.75000000   -19.91000000
   C     40.76000000    14.73000000   -19.10000000
   O     41.05000000    14.95000000   -17.92000000
   C     40.80000000    12.45000000   -19.97000000
   C     41.54000000    11.45000000   -20.85000000
   O     40.64000000    11.85000000   -18.70000000
   H     42.89000000    12.75000000   -18.68000000
   H     41.71000000    14.14000000   -20.92000000
   H     39.82000000    12.71000000   -20.39000000
   H     40.68000000    10.90000000   -18.73000000
   H     42.40000000    11.01000000   -20.35000000
   H     40.77000000    10.73000000   -21.14000000
   H     41.77000000    12.05000000   -21.73000000
   N     39.56000000    15.12000000   -19.53000000
   C     38.51000000    15.58000000   -18.64000000
   C     38.22000000    14.70000000   -17.43000000
   O     37.94000000    15.24000000   -16.36000000
   C     37.21000000    15.78000000   -19.41000000
   C     37.28000000    16.83000000   -20.52000000
   O     36.71000000    14.62000000   -20.06000000
   H     39.45000000    15.08000000   -20.53000000
   H     38.76000000    16.57000000   -18.28000000
   H     36.45000000    16.19000000   -18.75000000
   H     35.81000000    14.93000000   -20.14000000
   H     37.89000000    17.70000000   -20.28000000
   H     37.60000000    16.43000000   -21.48000000
   H     36.27000000    17.16000000   -20.76000000
   N     38.25000000    13.37000000   -17.54000000
   C     37.92000000    12.46000000   -16.46000000
   C     39.02000000    12.48000000   -15.41000000
   O     38.81000000    12.03000000   -14.28000000
   C     37.79000000    11.10000000   -17.14000000
   C     36.58000000    10.90000000   -18.04000000
   C     36.67000000    10.94000000   -19.57000000
   C     35.32000000    11.21000000   -20.23000000
   N     35.30000000    11.60000000   -21.65000000
   H     38.55000000    13.03000000   -18.44000000
   H     36.93000000    12.67000000   -16.04000000
   H     37.50000000    10.42000000   -16.34000000
   H     38.74000000    10.72000000   -17.52000000
   H     35.78000000    11.56000000   -17.70000000
   H     36.18000000     9.89000000   -17.95000000
   H     37.15000000    10.08000000   -20.05000000
   H     37.36000000    11.74000000   -19.84000000
   H     34.79000000    12.00000000   -19.69000000
   H     34.69000000    10.35000000   -20.05000000
   H     35.95000000    12.38000000   -21.70000000
   H     35.60000000    10.88000000   -22.28000000
   H     34.45000000    12.07000000   -21.92000000
   N     40.22000000    12.94000000   -15.77000000
   C     41.39000000    12.88000000   -14.93000000
   C     41.73000000    14.22000000   -14.29000000
   O     42.23000000    14.26000000   -13.17000000
   C     42.54000000    12.35000000   -15.79000000
   C     42.59000000    10.82000000   -15.69000000
   C     43.53000000    10.23000000   -16.73000000
   O     44.18000000     9.22000000   -16.36000000
   O     43.74000000    10.78000000   -17.83000000
   H     40.44000000    12.98000000   -16.76000000
   H     41.27000000    12.24000000   -14.06000000
   H     43.46000000    12.73000000   -15.35000000
   H     42.40000000    12.60000000   -16.84000000
   H     41.57000000    10.45000000   -15.77000000
   H     42.98000000    10.54000000   -14.72000000
   N     41.39000000    15.33000000   -14.94000000
   C     41.34000000    16.62000000   -14.29000000
   H     40.30300000    16.94700000   -14.21200000
   H     41.77200000    16.54200000   -13.29200000
   H     41.90600000    17.34500000   -14.87600000
   H     41.08000000    15.27000000   -15.90000000
  Ca     45.23000000     8.82000000   -18.91000000
   O     42.80000000     7.94000000   -19.27000000
   H     41.93000000     8.27000000   -19.04000000
   H     42.76000000     7.00000000   -19.10000000
   O     44.45000000     9.72000000   -21.35000000
   H     45.09000000     9.74000000   -22.06000000
   H     43.61000000     9.59000000   -21.80000000

Ca 1.00



