%chk=loop4.holoCaM.run4.water2.chk
%nprocshared=20
%mem=10GB
%nosave
#b3lyp/svp scf=(tight,noincore,xqc) Test 
#IOP(5/87=12) Density=Current Pop=(MK,readradii) iop(6/33=2) iop(6/42=6)

loop4.holoCaM.run4.water2 

   -3  1 
   C     32.74000000    15.96000000    47.18000000
   C     34.18000000    16.07000000    47.67000000
   O     35.16000000    15.89000000    46.94000000
   H     32.13300000    16.72600000    47.66300000
   H     32.71100000    16.10200000    46.10000000
   H     32.34600000    14.97500000    47.42800000
   N     34.36000000    16.24000000    48.98000000
   C     35.67000000    16.21000000    49.61000000
   C     36.49000000    14.96000000    49.34000000
   O     36.01000000    13.85000000    49.55000000
   C     35.50000000    16.37000000    51.12000000
   C     36.77000000    16.35000000    51.96000000
   O     37.83000000    16.79000000    51.47000000
   O     36.62000000    16.13000000    53.18000000
   H     33.54000000    16.39000000    49.54000000
   H     36.20000000    17.04000000    49.14000000
   H     34.93000000    15.55000000    51.56000000
   H     35.03000000    17.33000000    51.28000000
   N     37.74000000    15.11000000    48.89000000
   C     38.65000000    14.03000000    48.56000000
   C     39.65000000    13.73000000    49.67000000
   O     40.26000000    12.66000000    49.63000000
   C     39.44000000    14.26000000    47.27000000
   C     40.50000000    15.36000000    47.26000000
   C     38.57000000    14.47000000    46.04000000
   C     41.31000000    15.57000000    45.99000000
   H     38.02000000    16.07000000    48.76000000
   H     38.06000000    13.12000000    48.50000000
   H     39.93000000    13.31000000    47.03000000
   H     41.19000000    15.16000000    48.08000000
   H     40.04000000    16.29000000    47.58000000
   H     39.07000000    14.61000000    45.08000000
   H     37.96000000    13.57000000    45.93000000
   H     38.05000000    15.40000000    46.24000000
   H     40.85000000    16.01000000    45.10000000
   H     42.31000000    15.96000000    46.21000000
   H     41.56000000    14.57000000    45.66000000
   N     39.78000000    14.55000000    50.71000000
   C     40.92000000    14.54000000    51.62000000
   C     40.58000000    14.69000000    53.09000000
   O     41.49000000    14.75000000    53.91000000
   C     41.92000000    15.61000000    51.18000000
   C     41.32000000    17.00000000    51.03000000
   O     40.98000000    17.45000000    49.92000000
   O     41.06000000    17.69000000    52.04000000
   H     39.21000000    15.38000000    50.75000000
   H     41.47000000    13.62000000    51.43000000
   H     42.29000000    15.33000000    50.19000000
   H     42.78000000    15.52000000    51.85000000
   N     39.31000000    14.80000000    53.49000000
   C     38.85000000    14.71000000    54.87000000
   C     38.97000000    15.98000000    55.69000000
   O     38.94000000    15.91000000    56.92000000
   H     38.61000000    15.03000000    52.81000000
   H     39.38000000    13.93000000    55.42000000
   H     37.80000000    14.44000000    54.88000000
   N     39.17000000    17.14000000    55.06000000
   C     39.12000000    18.41000000    55.76000000
   C     37.66000000    18.77000000    55.95000000
   O     37.32000000    19.52000000    56.86000000
   C     39.99000000    19.49000000    55.11000000
   C     39.67000000    19.92000000    53.68000000
   O     38.64000000    19.43000000    53.17000000
   O     40.43000000    20.72000000    53.09000000
   H     39.24000000    17.14000000    54.05000000
   H     39.41000000    18.20000000    56.79000000
   H     41.01000000    19.12000000    55.17000000
   H     39.95000000    20.38000000    55.72000000
   N     36.76000000    18.38000000    55.04000000
   C     35.35000000    18.68000000    55.12000000
   C     34.86000000    19.87000000    54.30000000
   O     33.69000000    20.21000000    54.47000000
   H     37.23000000    18.00000000    54.23000000
   H     34.94000000    18.71000000    56.13000000
   H     34.84000000    17.81000000    54.71000000
   N     35.74000000    20.44000000    53.48000000
   C     35.53000000    21.60000000    52.64000000
   C     35.98000000    21.17000000    51.25000000
   O     36.53000000    20.08000000    51.04000000
   C     36.29000000    22.84000000    53.08000000
   C     36.19000000    23.27000000    54.54000000
   C     36.93000000    24.57000000    54.79000000
   N     38.21000000    24.45000000    55.16000000
   O     36.46000000    25.71000000    54.79000000
   H     36.69000000    20.11000000    53.55000000
   H     34.51000000    21.89000000    52.36000000
   H     35.98000000    23.75000000    52.56000000
   H     37.36000000    22.68000000    52.92000000
   H     36.55000000    22.46000000    55.19000000
   H     35.15000000    23.46000000    54.80000000
   H     38.62000000    23.53000000    55.16000000
   H     38.76000000    25.24000000    55.46000000
   N     35.77000000    21.99000000    50.22000000
   C     36.32000000    21.78000000    48.90000000
   C     37.19000000    22.96000000    48.49000000
   O     36.83000000    24.14000000    48.55000000
   C     35.29000000    21.43000000    47.82000000
   C     34.76000000    20.02000000    47.98000000
   C     34.16000000    22.45000000    47.74000000
   H     35.17000000    22.80000000    50.32000000
   H     36.95000000    20.89000000    48.86000000
   H     35.78000000    21.48000000    46.84000000
   H     33.96000000    19.88000000    47.25000000
   H     35.43000000    19.18000000    47.80000000
   H     34.47000000    19.91000000    49.03000000
   H     33.51000000    22.32000000    48.60000000
   H     34.54000000    23.45000000    47.56000000
   H     33.53000000    22.22000000    46.88000000
   N     38.34000000    22.65000000    47.91000000
   C     39.10000000    23.53000000    47.04000000
   C     38.70000000    23.56000000    45.57000000
   O     37.74000000    22.89000000    45.19000000
   C     40.61000000    23.37000000    47.13000000
   C     41.27000000    22.35000000    46.21000000
   N     40.85000000    21.08000000    46.25000000
   O     42.13000000    22.70000000    45.41000000
   H     38.67000000    21.69000000    47.95000000
   H     38.83000000    24.51000000    47.42000000
   H     40.86000000    23.06000000    48.15000000
   H     41.18000000    24.29000000    47.17000000
   H     40.37000000    20.77000000    47.08000000
   H     41.39000000    20.38000000    45.76000000
   N     39.42000000    24.39000000    44.82000000
   C     39.14000000    24.63000000    43.42000000
   C     39.23000000    23.32000000    42.66000000
   O     38.39000000    23.10000000    41.79000000
   C     40.01000000    25.80000000    42.96000000
   C     39.66000000    26.21000000    41.55000000
   C     38.58000000    27.03000000    41.21000000
   C     40.60000000    26.00000000    40.52000000
   C     38.36000000    27.47000000    39.90000000
   C     40.50000000    26.57000000    39.25000000
   C     39.31000000    27.24000000    38.89000000
   O     39.09000000    27.63000000    37.60000000
   H     40.18000000    24.92000000    45.23000000
   H     38.14000000    25.06000000    43.28000000
   H     41.06000000    25.49000000    42.96000000
   H     39.95000000    26.65000000    43.64000000
   H     37.85000000    27.22000000    41.99000000
   H     41.49000000    25.44000000    40.74000000
   H     37.47000000    28.04000000    39.68000000
   H     41.37000000    26.46000000    38.63000000
   H     39.58000000    27.03000000    37.04000000
   N     40.21000000    22.46000000    42.95000000
   C     40.54000000    21.22000000    42.28000000
   C     39.55000000    20.10000000    42.58000000
   O     39.48000000    19.09000000    41.89000000
   C     41.98000000    20.78000000    42.54000000
   C     43.03000000    21.82000000    42.17000000
   C     44.45000000    21.27000000    42.24000000
   O     45.30000000    21.84000000    42.96000000
   O     44.78000000    20.21000000    41.66000000
   H     40.90000000    22.64000000    43.67000000
   H     40.40000000    21.45000000    41.22000000
   H     42.19000000    20.02000000    41.79000000
   H     42.03000000    20.40000000    43.56000000
   H     42.97000000    22.76000000    42.72000000
   H     42.89000000    22.04000000    41.11000000
   N     38.76000000    20.35000000    43.62000000
   C     37.61000000    19.54000000    43.97000000
   C     36.28000000    20.00000000    43.38000000
   O     35.57000000    19.14000000    42.86000000
   C     37.58000000    19.39000000    45.48000000
   C     38.67000000    18.52000000    46.10000000
   C     38.75000000    18.83000000    47.59000000
   O     39.18000000    19.89000000    48.08000000
   O     38.34000000    17.97000000    48.41000000
   H     38.85000000    21.19000000    44.19000000
   H     37.76000000    18.54000000    43.56000000
   H     36.66000000    18.84000000    45.70000000
   H     37.60000000    20.39000000    45.90000000
   H     39.64000000    18.61000000    45.60000000
   H     38.27000000    17.50000000    46.13000000
   N     35.98000000    21.30000000    43.33000000
   C     34.89000000    21.99000000    42.68000000
   H     34.05800000    22.09200000    43.37700000
   H     35.22200000    22.97900000    42.36500000
   H     34.56600000    21.42000000    41.80900000
   H     36.67000000    21.79000000    43.89000000
  Ca     39.06000000    19.02000000    50.70000000
   O     39.13000000    21.83000000    51.01000000
   H     39.98000000    22.23000000    50.82000000
   H     39.18000000    21.58000000    51.94000000
   O     41.32000000    20.61000000    49.65000000
   H     41.08000000    20.21000000    48.81000000
   H     42.27000000    20.68000000    49.62000000

Ca 1.00



