%chk=loop3.holoCaM.run25.water2.chk
%nprocshared=20
%mem=10GB
%nosave
#b3lyp/svp scf=(tight,noincore,xqc) Test 
#IOP(5/87=12) Density=Current Pop=(MK,readradii) iop(6/33=2) iop(6/42=6)

loop3.holoCaM.run25.water2 

   0  1 
   C     81.65000000    40.02000000    19.05000000
   C     83.17000000    40.04000000    19.03000000
   O     83.87000000    39.03000000    18.97000000
   H     81.26800000    40.78200000    18.37100000
   H     81.29500000    39.04000000    18.73200000
   H     81.29700000    40.22500000    20.06100000
   N     83.72000000    41.26000000    18.98000000
   C     85.12000000    41.65000000    19.00000000
   C     85.45000000    41.62000000    20.49000000
   O     85.03000000    42.53000000    21.20000000
   C     85.38000000    43.02000000    18.38000000
   C     86.78000000    43.63000000    18.43000000
   O     87.78000000    42.91000000    18.63000000
   O     86.85000000    44.85000000    18.19000000
   H     83.10000000    42.04000000    19.10000000
   H     85.80000000    40.98000000    18.49000000
   H     84.75000000    43.79000000    18.82000000
   H     85.03000000    42.87000000    17.36000000
   N     86.18000000    40.62000000    20.99000000
   C     86.42000000    40.27000000    22.37000000
   C     87.48000000    41.14000000    23.03000000
   O     87.45000000    41.28000000    24.26000000
   C     86.80000000    38.79000000    22.45000000
   C     85.56000000    37.91000000    22.34000000
   C     85.82000000    36.42000000    22.61000000
   C     84.47000000    35.80000000    22.29000000
   N     84.39000000    34.34000000    22.48000000
   H     86.69000000    40.14000000    20.26000000
   H     85.52000000    40.46000000    22.95000000
   H     87.43000000    38.53000000    23.31000000
   H     87.43000000    38.60000000    21.58000000
   H     85.15000000    38.01000000    21.34000000
   H     84.78000000    38.36000000    22.96000000
   H     86.09000000    36.13000000    23.62000000
   H     86.61000000    36.05000000    21.96000000
   H     84.21000000    36.11000000    21.28000000
   H     83.70000000    36.17000000    22.97000000
   H     84.98000000    33.91000000    21.78000000
   H     84.74000000    34.15000000    23.41000000
   H     83.47000000    33.96000000    22.32000000
   N     88.37000000    41.73000000    22.24000000
   C     89.36000000    42.65000000    22.79000000
   C     89.12000000    44.08000000    22.31000000
   O     89.80000000    44.95000000    22.86000000
   C     90.75000000    42.09000000    22.53000000
   C     91.33000000    42.15000000    21.12000000
   O     92.55000000    42.00000000    20.91000000
   O     90.63000000    42.48000000    20.14000000
   H     88.39000000    41.59000000    21.24000000
   H     89.34000000    42.63000000    23.88000000
   H     90.93000000    41.11000000    22.96000000
   H     91.41000000    42.69000000    23.15000000
   N     88.27000000    44.37000000    21.32000000
   C     87.97000000    45.74000000    20.96000000
   C     89.04000000    46.43000000    20.13000000
   O     89.11000000    47.66000000    20.07000000
   H     87.94000000    43.64000000    20.71000000
   H     87.89000000    46.35000000    21.86000000
   H     86.99000000    45.72000000    20.48000000
   N     89.83000000    45.69000000    19.34000000
   C     90.81000000    46.33000000    18.48000000
   C     90.14000000    46.80000000    17.20000000
   O     90.85000000    47.02000000    16.22000000
   C     92.05000000    45.46000000    18.30000000
   C     91.82000000    44.33000000    17.30000000
   N     92.89000000    43.78000000    16.72000000
   O     90.72000000    43.81000000    17.10000000
   H     89.77000000    44.69000000    19.42000000
   H     91.18000000    47.13000000    19.11000000
   H     92.36000000    45.00000000    19.24000000
   H     92.84000000    46.10000000    17.92000000
   H     93.82000000    44.16000000    16.84000000
   H     92.69000000    43.03000000    16.07000000
   N     88.81000000    46.86000000    17.15000000
   C     88.03000000    47.22000000    15.98000000
   C     88.01000000    46.14000000    14.90000000
   O     87.44000000    46.45000000    13.85000000
   H     88.24000000    46.51000000    17.91000000
   H     88.24000000    48.22000000    15.62000000
   H     87.02000000    47.33000000    16.38000000
   N     88.58000000    44.94000000    14.96000000
   C     88.52000000    43.84000000    14.02000000
   C     88.06000000    42.57000000    14.72000000
   O     88.44000000    42.15000000    15.81000000
   C     89.91000000    43.67000000    13.40000000
   C     90.41000000    44.90000000    12.69000000
   C     91.37000000    45.74000000    13.26000000
   C     89.89000000    45.20000000    11.42000000
   C     91.84000000    46.87000000    12.57000000
   C     90.38000000    46.34000000    10.77000000
   C     91.34000000    47.22000000    11.30000000
   O     91.80000000    48.29000000    10.60000000
   H     89.22000000    44.85000000    15.74000000
   H     87.82000000    44.12000000    13.23000000
   H     89.85000000    42.86000000    12.68000000
   H     90.60000000    43.35000000    14.18000000
   H     91.85000000    45.44000000    14.18000000
   H     89.14000000    44.57000000    10.98000000
   H     92.68000000    47.41000000    12.99000000
   H     90.11000000    46.60000000     9.75000000
   H     91.24000000    48.42000000     9.83000000
   N     87.38000000    41.72000000    13.94000000
   C     86.97000000    40.40000000    14.37000000
   C     87.89000000    39.42000000    13.66000000
   O     88.00000000    39.44000000    12.44000000
   C     85.50000000    40.11000000    14.09000000
   C     84.59000000    40.91000000    15.02000000
   C     85.23000000    38.61000000    14.11000000
   C     83.12000000    40.55000000    14.83000000
   H     87.07000000    41.98000000    13.02000000
   H     87.22000000    40.22000000    15.42000000
   H     85.33000000    40.46000000    13.07000000
   H     84.81000000    41.96000000    14.85000000
   H     85.00000000    40.64000000    16.00000000
   H     84.18000000    38.48000000    13.84000000
   H     85.81000000    37.99000000    13.42000000
   H     85.40000000    38.28000000    15.14000000
   H     82.82000000    40.60000000    13.79000000
   H     82.87000000    39.58000000    15.27000000
   H     82.44000000    41.20000000    15.38000000
   N     88.56000000    38.53000000    14.41000000
   C     89.46000000    37.50000000    13.94000000
   C     88.89000000    36.09000000    14.01000000
   O     87.77000000    35.85000000    14.46000000
   C     90.70000000    37.58000000    14.84000000
   O     90.43000000    37.39000000    16.21000000
   H     88.43000000    38.56000000    15.41000000
   H     89.87000000    37.72000000    12.95000000
   H     91.15000000    38.56000000    14.69000000
   H     91.38000000    36.79000000    14.52000000
   H     90.07000000    38.20000000    16.57000000
   N     89.69000000    35.13000000    13.56000000
   C     89.25000000    33.75000000    13.59000000
   C     88.98000000    33.10000000    14.95000000
   O     87.96000000    32.42000000    15.06000000
   C     90.28000000    32.86000000    12.89000000
   H     90.60000000    35.36000000    13.18000000
   H     88.29000000    33.80000000    13.09000000
   H     89.81000000    31.91000000    12.62000000
   H     90.66000000    33.20000000    11.94000000
   H     91.14000000    32.77000000    13.56000000
   N     89.76000000    33.39000000    15.99000000
   C     89.40000000    33.13000000    17.37000000
   C     88.23000000    33.86000000    18.00000000
   O     87.74000000    33.45000000    19.05000000
   C     90.67000000    33.37000000    18.18000000
   H     90.40000000    34.15000000    15.81000000
   H     88.98000000    32.12000000    17.40000000
   H     90.88000000    34.43000000    18.12000000
   H     90.64000000    33.04000000    19.22000000
   H     91.45000000    32.80000000    17.67000000
   N     87.62000000    34.88000000    17.39000000
   C     86.40000000    35.55000000    17.79000000
   C     85.21000000    35.17000000    16.91000000
   O     84.05000000    35.05000000    17.30000000
   C     86.71000000    37.04000000    17.72000000
   C     87.81000000    37.49000000    18.67000000
   C     88.23000000    38.88000000    18.23000000
   O     88.79000000    39.21000000    17.16000000
   O     88.10000000    39.81000000    19.06000000
   H     87.90000000    35.06000000    16.44000000
   H     86.10000000    35.35000000    18.82000000
   H     85.76000000    37.54000000    17.95000000
   H     86.96000000    37.24000000    16.68000000
   H     88.75000000    36.93000000    18.61000000
   H     87.46000000    37.60000000    19.70000000
   N     85.40000000    35.12000000    15.59000000
   C     84.40000000    34.52000000    14.74000000
   H     83.53800000    35.18300000    14.67100000
   H     84.81600000    34.36100000    13.74500000
   H     84.09000000    33.56400000    15.16200000
   H     86.30000000    35.29000000    15.16000000
  Ca     89.67000000    41.53000000    17.92000000
   O     91.49000000    39.89000000    19.07000000
   H     91.14000000    39.57000000    19.90000000
   H     92.27000000    40.39000000    19.32000000
   O     91.16000000    40.84000000    15.81000000
   H     91.36000000    41.15000000    14.93000000
   H     91.65000000    40.02000000    15.89000000

Ca 1.00



