%chk=loop1.apoCaM-CA-Ng.Init31.run18.water5.chk
%nprocshared=20
%mem=10GB
%nosave
#b3lyp/svp scf=(tight,noincore,xqc) Test 
#IOP(5/87=12) Density=Current Pop=(MK,readradii) iop(6/33=2) iop(6/42=6)

loop1.apoCaM-CA-Ng.Init31.run18.water5 

   0  1 
   C     73.67000000    56.79000000    -5.85000000
   C     73.29000000    55.55000000    -6.64000000
   O     73.51000000    55.48000000    -7.84000000
   H     74.56000000    57.24100000    -6.28900000
   H     72.84900000    57.50600000    -5.87900000
   H     73.87600000    56.51400000    -4.81600000
   N     72.68000000    54.53000000    -6.02000000
   C     72.43000000    53.20000000    -6.53000000
   C     71.17000000    52.63000000    -5.89000000
   O     70.57000000    53.31000000    -5.06000000
   C     73.69000000    52.40000000    -6.23000000
   C     73.99000000    51.26000000    -7.19000000
   O     73.09000000    50.67000000    -7.83000000
   O     75.13000000    50.73000000    -7.14000000
   H     72.31000000    54.74000000    -5.10000000
   H     72.34000000    53.25000000    -7.62000000
   H     73.44000000    52.06000000    -5.22000000
   H     74.58000000    53.01000000    -6.12000000
   N     70.86000000    51.39000000    -6.29000000
   C     69.65000000    50.70000000    -5.92000000
   C     69.61000000    50.57000000    -4.41000000
   O     68.65000000    51.06000000    -3.81000000
   C     69.77000000    49.40000000    -6.72000000
   C     69.41000000    49.51000000    -8.20000000
   C     69.45000000    48.20000000    -8.99000000
   C     68.44000000    48.27000000   -10.13000000
   N     67.09000000    47.92000000    -9.66000000
   H     71.45000000    50.83000000    -6.89000000
   H     68.70000000    51.15000000    -6.21000000
   H     69.19000000    48.63000000    -6.21000000
   H     70.78000000    49.01000000    -6.80000000
   H     70.12000000    50.15000000    -8.72000000
   H     68.46000000    50.03000000    -8.32000000
   H     69.14000000    47.36000000    -8.37000000
   H     70.45000000    47.95000000    -9.34000000
   H     68.70000000    47.51000000   -10.87000000
   H     68.56000000    49.18000000   -10.72000000
   H     66.82000000    48.48000000    -8.86000000
   H     66.45000000    48.03000000   -10.43000000
   H     67.05000000    46.93000000    -9.46000000
   N     70.51000000    49.93000000    -3.66000000
   C     71.73000000    49.22000000    -3.98000000
   C     72.70000000    49.42000000    -2.82000000
   O     72.26000000    49.82000000    -1.75000000
   C     71.40000000    47.75000000    -4.20000000
   C     72.64000000    46.96000000    -4.61000000
   O     72.90000000    46.64000000    -5.79000000
   O     73.48000000    46.57000000    -3.77000000
   H     70.27000000    49.85000000    -2.68000000
   H     72.17000000    49.62000000    -4.89000000
   H     70.67000000    47.65000000    -5.00000000
   H     70.99000000    47.39000000    -3.25000000
   N     74.01000000    49.27000000    -3.03000000
   C     74.99000000    49.33000000    -1.97000000
   C     76.43000000    49.04000000    -2.38000000
   O     76.85000000    49.41000000    -3.47000000
   H     74.25000000    48.98000000    -3.97000000
   H     74.70000000    48.69000000    -1.13000000
   H     74.96000000    50.34000000    -1.57000000
   N     77.20000000    48.43000000    -1.47000000
   C     78.51000000    47.93000000    -1.82000000
   C     79.56000000    48.25000000    -0.76000000
   O     79.31000000    48.11000000     0.44000000
   C     78.47000000    46.41000000    -1.96000000
   C     77.38000000    45.94000000    -2.92000000
   O     77.30000000    46.51000000    -4.03000000
   O     76.54000000    45.09000000    -2.58000000
   H     76.81000000    48.29000000    -0.55000000
   H     78.85000000    48.33000000    -2.77000000
   H     78.38000000    45.91000000    -0.99000000
   H     79.42000000    46.15000000    -2.43000000
   N     80.82000000    48.54000000    -1.10000000
   C     81.36000000    48.67000000    -2.43000000
   C     81.73000000    47.39000000    -3.18000000
   O     81.56000000    47.26000000    -4.39000000
   H     81.41000000    48.49000000    -0.28000000
   H     82.22000000    49.33000000    -2.34000000
   H     80.77000000    49.28000000    -3.11000000
   N     82.28000000    46.45000000    -2.40000000
   C     83.15000000    45.33000000    -2.67000000
   C     84.51000000    45.86000000    -3.12000000
   O     84.72000000    46.29000000    -4.25000000
   C     82.53000000    44.37000000    -3.69000000
   C     81.40000000    43.63000000    -2.98000000
   O     83.48000000    43.35000000    -3.94000000
   H     82.14000000    46.56000000    -1.41000000
   H     83.40000000    44.87000000    -1.72000000
   H     82.11000000    44.80000000    -4.59000000
   H     84.14000000    43.67000000    -4.57000000
   H     80.56000000    44.32000000    -2.95000000
   H     81.05000000    42.74000000    -3.50000000
   H     81.85000000    43.37000000    -2.02000000
   N     85.47000000    45.78000000    -2.21000000
   C     86.86000000    46.13000000    -2.45000000
   C     87.63000000    45.15000000    -3.31000000
   O     88.71000000    44.69000000    -2.96000000
   C     87.13000000    47.61000000    -2.73000000
   C     86.73000000    48.68000000    -1.72000000
   C     88.64000000    47.82000000    -2.77000000
   C     85.23000000    48.86000000    -1.52000000
   H     85.27000000    45.20000000    -1.41000000
   H     87.36000000    45.95000000    -1.50000000
   H     86.79000000    47.93000000    -3.72000000
   H     87.10000000    49.63000000    -2.10000000
   H     87.20000000    48.50000000    -0.76000000
   H     88.93000000    48.87000000    -2.85000000
   H     88.98000000    47.45000000    -1.80000000
   H     89.07000000    47.24000000    -3.58000000
   H     85.08000000    49.81000000    -1.00000000
   H     84.64000000    48.96000000    -2.43000000
   H     84.86000000    48.07000000    -0.86000000
   N     87.12000000    44.89000000    -4.52000000
   C     87.74000000    43.99000000    -5.47000000
   C     88.89000000    44.69000000    -6.18000000
   O     88.74000000    45.81000000    -6.68000000
   C     86.72000000    43.50000000    -6.49000000
   C     86.32000000    44.48000000    -7.59000000
   O     85.47000000    43.21000000    -5.91000000
   H     86.24000000    45.34000000    -4.70000000
   H     88.05000000    43.07000000    -4.96000000
   H     87.14000000    42.60000000    -6.93000000
   H     85.18000000    42.34000000    -6.20000000
   H     85.64000000    44.02000000    -8.31000000
   H     85.94000000    45.45000000    -7.28000000
   H     87.23000000    44.60000000    -8.19000000
   N     89.94000000    43.90000000    -6.36000000
   C     91.07000000    44.18000000    -7.23000000
   C     90.65000000    44.16000000    -8.70000000
   O     90.47000000    43.09000000    -9.27000000
   C     92.15000000    43.17000000    -6.86000000
   C     93.29000000    43.18000000    -7.88000000
   O     92.75000000    43.59000000    -5.66000000
   H     89.94000000    42.99000000    -5.92000000
   H     91.38000000    45.20000000    -7.00000000
   H     91.79000000    42.15000000    -6.87000000
   H     93.30000000    42.82000000    -5.44000000
   H     93.68000000    44.20000000    -7.94000000
   H     94.08000000    42.51000000    -7.53000000
   H     93.09000000    42.78000000    -8.87000000
   N     90.74000000    45.26000000    -9.45000000
   C     90.35000000    45.54000000   -10.82000000
   C     88.89000000    45.29000000   -11.15000000
   O     88.35000000    44.19000000   -11.17000000
   C     91.24000000    44.92000000   -11.89000000
   C     92.73000000    45.20000000   -11.75000000
   C     93.48000000    44.53000000   -12.89000000
   C     94.90000000    45.09000000   -13.02000000
   N     95.67000000    44.39000000   -14.05000000
   H     91.13000000    45.98000000    -8.86000000
   H     90.49000000    46.62000000   -10.92000000
   H     90.84000000    45.16000000   -12.88000000
   H     91.16000000    43.84000000   -11.79000000
   H     93.01000000    44.67000000   -10.83000000
   H     92.95000000    46.26000000   -11.69000000
   H     92.99000000    44.80000000   -13.83000000
   H     93.44000000    43.44000000   -12.85000000
   H     95.40000000    44.84000000   -12.08000000
   H     94.92000000    46.18000000   -13.08000000
   H     95.76000000    43.42000000   -13.79000000
   H     95.22000000    44.44000000   -14.96000000
   H     96.56000000    44.84000000   -14.22000000
   N     88.16000000    46.41000000   -11.16000000
   C     86.76000000    46.49000000   -11.54000000
   C     85.83000000    46.71000000   -10.35000000
   O     85.02000000    45.80000000   -10.17000000
   C     86.46000000    47.48000000   -12.66000000
   C     87.20000000    47.20000000   -13.97000000
   C     86.59000000    48.09000000   -15.04000000
   O     85.91000000    47.58000000   -15.97000000
   O     86.66000000    49.33000000   -14.92000000
   H     88.68000000    47.27000000   -11.21000000
   H     86.56000000    45.48000000   -11.89000000
   H     86.68000000    48.51000000   -12.38000000
   H     85.39000000    47.41000000   -12.81000000
   H     87.08000000    46.19000000   -14.35000000
   H     88.27000000    47.25000000   -13.80000000
   N     85.88000000    47.76000000    -9.54000000
   C     86.80000000    48.87000000    -9.44000000
   H     87.71400000    48.63400000    -9.98500000
   H     86.34200000    49.76200000    -9.86800000
   H     87.03900000    49.05100000    -8.39200000
   H     85.16000000    47.77000000    -8.83000000
  Ca     75.38000000    45.49000000    -5.35400000
   O     74.09000000    43.48000000    -3.75400000
   H     73.64000000    43.53000000    -2.90400000
   H     74.79000000    42.85000000    -3.62400000
   O     76.78000000    46.13000000    -7.45400000
   H     76.94000000    45.88000000    -8.36400000
   H     76.58000000    47.06000000    -7.49400000
   O     75.47000000    48.20000000    -5.50400000
   H     75.26000000    48.92000000    -6.10400000
   H     76.16000000    48.55000000    -4.94400000
   O     74.02000000    43.60000000    -6.66400000
   H     73.25000000    43.07000000    -6.45400000
   H     73.96000000    43.72000000    -7.61400000
   O     77.49000000    43.93000000    -5.56400000
   H     77.73000000    43.42000000    -6.33400000
   H     78.33000000    44.14000000    -5.14400000

Ca 1.00



