%chk=loop1.apoCaM-CA-Ng.Init293.run71.water5.chk
%nprocshared=20
%mem=10GB
%nosave
#b3lyp/svp scf=(tight,noincore,xqc) Test 
#IOP(5/87=12) Density=Current Pop=(MK,readradii) iop(6/33=2) iop(6/42=6)

loop1.apoCaM-CA-Ng.Init293.run71.water5 

   0  1 
   C     96.09000000    94.27000000    54.88000000
   C     97.13000000    95.30000000    55.32000000
   O     98.06000000    95.63000000    54.59000000
   H     95.20500000    94.78500000    54.50600000
   H     96.50700000    93.64600000    54.09000000
   H     95.81400000    93.64500000    55.73000000
   N     97.02000000    95.67000000    56.60000000
   C     97.97000000    96.54000000    57.25000000
   C     99.28000000    95.88000000    57.64000000
   O    100.19000000    96.63000000    57.99000000
   C     97.30000000    97.17000000    58.47000000
   C     97.20000000    96.16000000    59.60000000
   O     96.54000000    95.11000000    59.40000000
   O     97.65000000    96.47000000    60.72000000
   H     96.27000000    95.31000000    57.18000000
   H     98.27000000    97.32000000    56.55000000
   H     96.24000000    97.31000000    58.24000000
   H     97.88000000    98.00000000    58.86000000
   N     99.47000000    94.55000000    57.64000000
   C    100.67000000    93.93000000    58.14000000
   C    101.81000000    94.18000000    57.16000000
   O    101.59000000    93.84000000    56.00000000
   C    100.51000000    92.43000000    58.38000000
   C     99.99000000    92.28000000    59.81000000
   C     98.60000000    92.86000000    60.08000000
   C     98.21000000    92.20000000    61.40000000
   N     96.80000000    92.47000000    61.72000000
   H     98.88000000    94.03000000    57.00000000
   H    101.04000000    94.42000000    59.04000000
   H    101.37000000    91.80000000    58.12000000
   H     99.66000000    92.06000000    57.82000000
   H    100.73000000    92.70000000    60.48000000
   H    100.04000000    91.20000000    59.96000000
   H     97.90000000    92.59000000    59.29000000
   H     98.70000000    93.93000000    60.21000000
   H     98.87000000    92.69000000    62.11000000
   H     98.46000000    91.14000000    61.47000000
   H     96.24000000    91.91000000    61.09000000
   H     96.61000000    92.34000000    62.71000000
   H     96.60000000    93.44000000    61.54000000
   N    103.02000000    94.59000000    57.53000000
   C    103.49000000    95.18000000    58.76000000
   C    104.66000000    96.13000000    58.53000000
   O    105.76000000    95.98000000    59.06000000
   C    103.86000000    94.01000000    59.67000000
   C    104.33000000    94.40000000    61.07000000
   O    104.05000000    95.55000000    61.48000000
   O    104.72000000    93.52000000    61.86000000
   H    103.72000000    94.57000000    56.80000000
   H    102.67000000    95.79000000    59.14000000
   H    104.71000000    93.55000000    59.17000000
   H    103.07000000    93.26000000    59.71000000
   N    104.64000000    97.15000000    57.67000000
   C    103.57000000    97.50000000    56.76000000
   C    103.68000000    98.70000000    55.83000000
   O    104.60000000    99.48000000    56.04000000
   H    105.51000000    97.66000000    57.61000000
   H    102.59000000    97.52000000    57.25000000
   H    103.50000000    96.72000000    56.00000000
   N    102.84000000    98.83000000    54.80000000
   C    101.61000000    98.11000000    54.53000000
   C    100.38000000    98.94000000    54.17000000
   O    100.41000000    99.93000000    53.44000000
   C    101.86000000    97.03000000    53.49000000
   C    103.17000000    96.25000000    53.52000000
   O    103.15000000    95.10000000    54.02000000
   O    104.20000000    96.83000000    53.13000000
   H    103.04000000    99.54000000    54.11000000
   H    101.41000000    97.52000000    55.42000000
   H    101.90000000    97.61000000    52.57000000
   H    101.04000000    96.32000000    53.37000000
   N     99.23000000    98.35000000    54.48000000
   C     97.91000000    98.76000000    54.05000000
   C     97.57000000    98.46000000    52.60000000
   O     96.41000000    98.23000000    52.27000000
   H     99.36000000    97.56000000    55.10000000
   H     97.86000000    99.83000000    54.24000000
   H     97.22000000    98.19000000    54.68000000
   N     98.54000000    98.23000000    51.71000000
   C     98.39000000    97.84000000    50.33000000
   C     98.26000000    96.35000000    50.07000000
   O     99.05000000    95.56000000    50.59000000
   C     99.45000000    98.49000000    49.44000000
   C    100.85000000    98.20000000    49.98000000
   O     99.18000000    99.88000000    49.35000000
   H     99.44000000    98.64000000    51.94000000
   H     97.46000000    98.34000000    50.05000000
   H     99.47000000    98.15000000    48.41000000
   H     99.89000000   100.16000000    48.77000000
   H    101.01000000    98.73000000    50.92000000
   H    100.98000000    97.12000000    50.05000000
   H    101.62000000    98.52000000    49.28000000
   N     97.32000000    96.03000000    49.18000000
   C     96.96000000    94.70000000    48.73000000
   C     97.49000000    94.50000000    47.31000000
   O     96.82000000    95.02000000    46.43000000
   C     95.52000000    94.32000000    49.07000000
   C     95.08000000    92.95000000    48.56000000
   C     94.46000000    95.39000000    48.85000000
   C     96.10000000    91.85000000    48.88000000
   H     96.71000000    96.70000000    48.74000000
   H     97.58000000    94.00000000    49.29000000
   H     95.58000000    94.13000000    50.14000000
   H     94.99000000    92.89000000    47.47000000
   H     94.18000000    92.68000000    49.12000000
   H     94.85000000    96.39000000    49.07000000
   H     94.17000000    95.42000000    47.80000000
   H     93.56000000    95.26000000    49.45000000
   H     96.57000000    92.03000000    49.85000000
   H     95.61000000    90.88000000    48.91000000
   H     96.87000000    91.96000000    48.12000000
   N     98.63000000    93.83000000    47.14000000
   C     99.22000000    93.54000000    45.84000000
   C     99.48000000    92.05000000    45.74000000
   O     99.68000000    91.59000000    44.62000000
   C    100.45000000    94.38000000    45.51000000
   C    101.63000000    94.19000000    46.45000000
   O    100.20000000    95.77000000    45.49000000
   H     99.03000000    93.53000000    48.02000000
   H     98.54000000    93.83000000    45.04000000
   H    100.75000000    94.04000000    44.52000000
   H     99.46000000    95.85000000    44.88000000
   H    102.55000000    94.30000000    45.87000000
   H    101.54000000    94.82000000    47.33000000
   H    101.58000000    93.23000000    46.97000000
   N     99.42000000    91.26000000    46.82000000
   C     99.65000000    89.83000000    46.78000000
   C    101.02000000    89.41000000    46.26000000
   O    101.80000000    90.22000000    45.78000000
   C     98.49000000    89.05000000    46.17000000
   C     97.06000000    89.59000000    46.18000000
   O     98.51000000    87.74000000    46.69000000
   H     99.44000000    91.61000000    47.77000000
   H     99.64000000    89.51000000    47.82000000
   H     98.68000000    89.00000000    45.10000000
   H     97.68000000    87.31000000    46.45000000
   H     97.07000000    90.54000000    45.65000000
   H     96.35000000    88.90000000    45.72000000
   H     96.81000000    89.92000000    47.18000000
   N    101.37000000    88.13000000    46.38000000
   C    102.65000000    87.54000000    46.05000000
   C    103.55000000    87.26000000    47.25000000
   O    104.73000000    87.09000000    46.97000000
   C    102.50000000    86.30000000    45.17000000
   C    101.92000000    86.38000000    43.76000000
   C    102.40000000    87.57000000    42.93000000
   C    101.89000000    87.37000000    41.51000000
   N    100.43000000    87.51000000    41.40000000
   H    100.62000000    87.54000000    46.69000000
   H    103.24000000    88.32000000    45.56000000
   H    101.88000000    85.61000000    45.74000000
   H    103.50000000    85.92000000    44.96000000
   H    100.84000000    86.44000000    43.87000000
   H    102.15000000    85.46000000    43.22000000
   H    103.48000000    87.48000000    42.92000000
   H    102.14000000    88.55000000    43.32000000
   H    102.09000000    86.34000000    41.20000000
   H    102.28000000    88.16000000    40.86000000
   H    100.05000000    88.40000000    41.66000000
   H    100.26000000    87.56000000    40.40000000
   H     99.93000000    86.72000000    41.79000000
   N    103.26000000    87.19000000    48.55000000
   C    102.10000000    87.35000000    49.40000000
   C    100.96000000    86.40000000    49.05000000
   O     99.81000000    86.71000000    49.34000000
   C    101.92000000    88.84000000    49.71000000
   C    101.24000000    89.24000000    51.02000000
   C    101.79000000    90.47000000    51.72000000
   O    101.56000000    91.61000000    51.27000000
   O    102.34000000    90.34000000    52.83000000
   H    104.09000000    86.88000000    49.03000000
   H    102.42000000    86.90000000    50.34000000
   H    101.35000000    89.26000000    48.88000000
   H    102.95000000    89.18000000    49.79000000
   H    101.19000000    88.38000000    51.68000000
   H    100.24000000    89.53000000    50.67000000
   N    101.32000000    85.25000000    48.47000000
   C    100.28000000    84.31000000    48.09000000
   H     99.41200000    84.85800000    47.72400000
   H    100.65200000    83.65400000    47.30300000
   H     99.99400000    83.71400000    48.95600000
   H    102.27000000    85.03000000    48.23000000
  Ca    102.13500000    92.89000000    53.48000000
   O     99.74500000    94.04000000    53.02000000
   H     99.16500000    94.41000000    53.68000000
   H     99.66500000    94.63000000    52.27000000
   O    101.82500000    94.57000000    51.27000000
   H    101.08500000    94.64000000    50.66000000
   H    102.59500000    94.72000000    50.73000000
   O    100.42500000    91.41000000    54.77000000
   H    100.52500000    90.64000000    55.33000000
   H     99.58500000    91.79000000    55.03000000
   O    104.21500000    92.69000000    51.77000000
   H    104.78500000    93.45000000    51.81000000
   H    104.24500000    92.41000000    50.85000000
   O    103.60500000    91.74000000    55.40000000
   H    104.07500000    92.00000000    56.20000000
   H    103.54500000    90.79000000    55.47000000

Ca 1.00



