%chk=loop2.holoCaM-CaMKII.run70.water2.chk
%nprocshared=20
%mem=10GB
%nosave
#b3lyp/svp scf=(tight,noincore,xqc) Test 
#IOP(5/87=12) Density=Current Pop=(MK,readradii) iop(6/33=2) iop(6/42=6)

loop2.holoCaM-CaMKII.run70.water2 

   -2  1 
   C     14.59000000    60.95000000    -0.56700000
   C     14.15000000    61.70000000    -1.80700000
   O     14.98000000    61.95000000    -2.67700000
   H     15.46500000    61.43900000    -0.13900000
   H     13.78100000    60.94900000     0.16400000
   H     14.84100000    59.92300000    -0.83300000
   N     12.88000000    62.08000000    -1.90700000
   C     12.27000000    62.59000000    -3.12700000
   C     12.71000000    64.03000000    -3.37700000
   O     12.79000000    64.88000000    -2.49700000
   C     10.76000000    62.68000000    -2.91700000
   C     10.10000000    63.21000000    -4.18700000
   O     10.38000000    62.81000000    -5.32700000
   O      9.49000000    64.29000000    -4.02700000
   H     12.22000000    61.85000000    -1.17700000
   H     12.48000000    61.94000000    -3.97700000
   H     10.67000000    63.41000000    -2.11700000
   H     10.25000000    61.76000000    -2.63700000
   N     12.77000000    64.36000000    -4.66700000
   C     13.09000000    65.68000000    -5.17700000
   C     12.20000000    66.24000000    -6.28700000
   O     12.50000000    67.30000000    -6.82700000
   C     14.53000000    65.51000000    -5.64700000
   H     13.00000000    63.63000000    -5.32700000
   H     13.18000000    66.42000000    -4.37700000
   H     15.19000000    65.07000000    -4.89700000
   H     14.56000000    64.93000000    -6.56700000
   H     14.98000000    66.46000000    -5.92700000
   N     11.11000000    65.56000000    -6.64700000
   C     10.12000000    66.03000000    -7.58700000
   C      8.68000000    65.59000000    -7.34700000
   O      7.73000000    66.07000000    -7.97700000
   C     10.54000000    65.74000000    -9.01700000
   C     10.56000000    64.25000000    -9.31700000
   O     10.37000000    63.38000000    -8.43700000
   O     10.59000000    63.97000000   -10.53700000
   H     10.97000000    64.76000000    -6.03700000
   H     10.02000000    67.11000000    -7.62700000
   H     11.55000000    66.14000000    -9.18700000
   H      9.88000000    66.33000000    -9.65700000
   N      8.36000000    64.63000000    -6.48700000
   C      6.98000000    64.35000000    -6.14700000
   C      6.27000000    63.43000000    -7.13700000
   O      5.05000000    63.37000000    -7.12700000
   H      9.03000000    64.12000000    -5.93700000
   H      6.43000000    65.29000000    -6.18700000
   H      6.91000000    63.97000000    -5.12700000
   N      7.01000000    62.74000000    -8.00700000
   C      6.45000000    61.94000000    -9.07700000
   C      5.81000000    60.61000000    -8.69700000
   O      5.34000000    59.83000000    -9.52700000
   C      7.42000000    61.78000000   -10.23700000
   C      8.58000000    60.85000000    -9.92700000
   N      9.44000000    60.57000000   -10.91700000
   O      8.86000000    60.49000000    -8.78700000
   H      8.00000000    62.94000000    -8.10700000
   H      5.56000000    62.44000000    -9.43700000
   H      7.84000000    62.76000000   -10.47700000
   H      6.83000000    61.34000000   -11.03700000
   H      9.30000000    60.97000000   -11.82700000
   H     10.26000000    60.00000000   -10.80700000
   N      5.74000000    60.39000000    -7.38700000
   C      5.21000000    59.20000000    -6.74700000
   C      6.23000000    58.08000000    -6.54700000
   O      5.94000000    57.15000000    -5.78700000
   H      6.21000000    61.07000000    -6.79700000
   H      4.37000000    58.84000000    -7.34700000
   H      4.88000000    59.36000000    -5.71700000
   N      7.42000000    58.15000000    -7.14700000
   C      8.31000000    57.03000000    -7.38700000
   C      9.74000000    57.43000000    -7.02700000
   O     10.12000000    58.54000000    -7.39700000
   C      8.21000000    56.53000000    -8.81700000
   C      6.82000000    56.01000000    -9.16700000
   O      8.42000000    57.63000000    -9.68700000
   H      7.60000000    58.96000000    -7.71700000
   H      8.13000000    56.26000000    -6.63700000
   H      8.99000000    55.78000000    -8.93700000
   H      8.96000000    58.29000000    -9.24700000
   H      6.70000000    55.18000000    -8.46700000
   H      6.05000000    56.77000000    -9.01700000
   H      6.86000000    55.61000000   -10.17700000
   N     10.59000000    56.59000000    -6.43700000
   C     12.02000000    56.80000000    -6.33700000
   C     12.74000000    56.72000000    -7.67700000
   O     12.58000000    55.75000000    -8.40700000
   C     12.70000000    55.94000000    -5.27700000
   C     12.56000000    56.56000000    -3.88700000
   C     14.20000000    55.74000000    -5.46700000
   C     12.76000000    55.52000000    -2.77700000
   H     10.35000000    55.64000000    -6.20700000
   H     12.20000000    57.84000000    -6.06700000
   H     12.27000000    54.94000000    -5.23700000
   H     11.55000000    56.96000000    -3.83700000
   H     13.31000000    57.34000000    -3.80700000
   H     14.28000000    55.22000000    -6.42700000
   H     14.66000000    56.73000000    -5.49700000
   H     14.55000000    55.06000000    -4.69700000
   H     12.31000000    54.57000000    -3.03700000
   H     13.83000000    55.37000000    -2.61700000
   H     12.38000000    55.93000000    -1.84700000
   N     13.46000000    57.78000000    -8.05700000
   C     14.32000000    57.87000000    -9.21700000
   C     15.75000000    57.57000000    -8.79700000
   O     16.02000000    57.63000000    -7.59700000
   C     14.17000000    59.25000000    -9.86700000
   C     12.78000000    59.81000000   -10.07700000
   O     12.18000000    60.45000000    -9.18700000
   O     12.18000000    59.74000000   -11.17700000
   H     13.31000000    58.57000000    -7.44700000
   H     13.97000000    57.15000000    -9.96700000
   H     14.68000000    59.26000000   -10.82700000
   H     14.75000000    59.90000000    -9.20700000
   N     16.58000000    57.35000000    -9.81700000
   C     17.98000000    57.10000000    -9.54700000
   C     18.68000000    58.07000000    -8.59700000
   O     19.30000000    57.62000000    -7.63700000
   C     18.77000000    56.81000000   -10.82700000
   C     20.16000000    56.36000000   -10.46700000
   C     21.28000000    57.17000000   -10.66700000
   C     20.35000000    55.02000000   -10.08700000
   C     22.55000000    56.80000000   -10.18700000
   C     21.62000000    54.61000000    -9.68700000
   C     22.72000000    55.48000000    -9.75700000
   H     16.28000000    57.47000000   -10.76700000
   H     18.06000000    56.16000000    -8.99700000
   H     18.81000000    57.77000000   -11.32700000
   H     18.22000000    56.00000000   -11.30700000
   H     21.15000000    58.18000000   -11.01700000
   H     19.57000000    54.31000000    -9.84700000
   H     23.36000000    57.49000000   -10.06700000
   H     21.72000000    53.60000000    -9.30700000
   H     23.71000000    55.16000000    -9.46700000
   N     18.53000000    59.39000000    -8.66700000
   C     19.20000000    60.38000000    -7.84700000
   C     18.64000000    60.50000000    -6.42700000
   O     19.04000000    61.34000000    -5.62700000
   C     19.13000000    61.70000000    -8.60700000
   C     17.78000000    61.60000000    -9.30700000
   C     17.77000000    60.12000000    -9.66700000
   H     20.27000000    60.20000000    -7.82700000
   H     19.22000000    62.56000000    -7.93700000
   H     19.92000000    61.77000000    -9.35700000
   H     16.98000000    61.74000000    -8.58700000
   H     17.85000000    62.40000000   -10.03700000
   H     16.76000000    59.77000000    -9.86700000
   H     18.40000000    60.01000000   -10.54700000
   N     17.73000000    59.59000000    -6.06700000
   C     16.97000000    59.48000000    -4.83700000
   C     17.28000000    58.12000000    -4.20700000
   O     17.33000000    57.97000000    -2.98700000
   C     15.50000000    59.69000000    -5.17700000
   C     15.13000000    60.92000000    -5.98700000
   C     13.64000000    61.07000000    -6.27700000
   O     13.14000000    62.20000000    -6.44700000
   O     12.86000000    60.11000000    -6.38700000
   H     17.47000000    59.02000000    -6.85700000
   H     17.21000000    60.28000000    -4.13700000
   H     14.85000000    59.58000000    -4.29700000
   H     15.21000000    58.88000000    -5.84700000
   H     15.74000000    60.93000000    -6.89700000
   H     15.43000000    61.74000000    -5.33700000
   N     17.59000000    57.09000000    -4.99700000
   C     18.03000000    55.77000000    -4.59700000
   H     18.96400000    55.85200000    -4.04200000
   H     17.27100000    55.31000000    -3.96400000
   H     18.18700000    55.15500000    -5.48300000
   H     17.64000000    57.29000000    -5.98700000
  Ca     10.75000000    61.23000000    -7.29700000
   O     10.88000000    59.49000000    -4.61700000
   H     10.55000000    59.38000000    -3.72700000
   H     11.74000000    59.91000000    -4.49700000
   O      8.52000000    60.42000000    -5.66700000
   H      8.96000000    59.67000000    -5.24700000
   H      7.72000000    60.54000000    -5.16700000

Ca 1.00



