%chk=loop4.holoCaM-CaMKII.run99.water2.chk
%nprocshared=20
%mem=10GB
%nosave
#b3lyp/svp scf=(tight,noincore,xqc) Test 
#IOP(5/87=12) Density=Current Pop=(MK,readradii) iop(6/33=2) iop(6/42=6)

loop4.holoCaM-CaMKII.run99.water2 

   -3  1 
   C     54.59000000    35.44000000    92.83000000
   C     53.98000000    36.83000000    92.71000000
   O     53.38000000    37.15000000    91.69000000
   H     55.54600000    35.50700000    93.34900000
   H     53.91600000    34.79400000    93.39300000
   H     54.74600000    35.02400000    91.83500000
   N     54.28000000    37.68000000    93.69000000
   C     53.77000000    39.04000000    93.72000000
   C     54.75000000    40.00000000    93.06000000
   O     55.94000000    39.97000000    93.38000000
   C     53.62000000    39.35000000    95.21000000
   C     53.12000000    40.76000000    95.44000000
   O     52.49000000    41.35000000    94.54000000
   O     53.39000000    41.36000000    96.51000000
   H     54.92000000    37.36000000    94.40000000
   H     52.83000000    39.09000000    93.18000000
   H     54.60000000    39.14000000    95.65000000
   H     52.93000000    38.63000000    95.65000000
   N     54.30000000    40.78000000    92.08000000
   C     55.08000000    41.60000000    91.16000000
   C     55.09000000    43.09000000    91.42000000
   O     56.06000000    43.76000000    91.06000000
   C     54.72000000    41.09000000    89.77000000
   C     55.95000000    40.74000000    88.93000000
   C     53.83000000    42.15000000    89.12000000
   C     55.52000000    40.25000000    87.55000000
   H     53.30000000    40.87000000    91.94000000
   H     56.12000000    41.38000000    91.40000000
   H     54.11000000    40.18000000    89.79000000
   H     56.47000000    39.93000000    89.44000000
   H     56.52000000    41.66000000    88.84000000
   H     54.31000000    43.12000000    89.02000000
   H     53.52000000    41.89000000    88.11000000
   H     53.01000000    42.29000000    89.84000000
   H     56.22000000    39.45000000    87.28000000
   H     54.48000000    39.94000000    87.50000000
   H     55.60000000    41.02000000    86.79000000
   N     54.02000000    43.66000000    91.99000000
   C     53.96000000    45.06000000    92.35000000
   C     54.21000000    45.35000000    93.83000000
   O     54.62000000    46.43000000    94.24000000
   C     52.65000000    45.73000000    91.95000000
   C     51.44000000    44.84000000    92.19000000
   O     50.59000000    44.71000000    91.28000000
   O     51.44000000    44.12000000    93.21000000
   H     53.20000000    43.12000000    92.23000000
   H     54.72000000    45.61000000    91.80000000
   H     52.88000000    46.03000000    90.93000000
   H     52.58000000    46.66000000    92.51000000
   N     53.99000000    44.40000000    94.74000000
   C     54.44000000    44.48000000    96.11000000
   C     53.34000000    44.99000000    97.04000000
   O     53.33000000    46.11000000    97.55000000
   H     53.58000000    43.56000000    94.36000000
   H     55.25000000    45.21000000    96.15000000
   H     54.88000000    43.55000000    96.47000000
   N     52.48000000    44.01000000    97.30000000
   C     51.33000000    44.05000000    98.18000000
   C     50.93000000    42.78000000    98.91000000
   O     50.01000000    42.55000000    99.70000000
   C     50.17000000    44.60000000    97.36000000
   C     49.68000000    43.71000000    96.23000000
   O     49.14000000    44.24000000    95.24000000
   O     50.01000000    42.50000000    96.23000000
   H     52.62000000    43.10000000    96.87000000
   H     51.52000000    44.84000000    98.91000000
   H     50.50000000    45.56000000    96.96000000
   H     49.36000000    44.86000000    98.03000000
   N     51.69000000    41.71000000    98.66000000
   C     51.64000000    40.33000000    99.08000000
   C     50.45000000    39.45000000    98.70000000
   O     50.25000000    38.43000000    99.35000000
   H     52.40000000    41.92000000    97.96000000
   H     51.63000000    40.42000000   100.17000000
   H     52.58000000    39.86000000    98.80000000
   N     49.55000000    39.86000000    97.80000000
   C     48.66000000    38.97000000    97.08000000
   C     48.94000000    38.98000000    95.58000000
   O     49.63000000    39.83000000    95.03000000
   C     47.18000000    39.23000000    97.29000000
   C     46.77000000    38.81000000    98.70000000
   C     45.33000000    39.14000000    99.08000000
   N     45.10000000    39.49000000   100.35000000
   O     44.38000000    38.97000000    98.32000000
   H     49.88000000    40.68000000    97.31000000
   H     48.88000000    38.00000000    97.53000000
   H     46.61000000    38.63000000    96.58000000
   H     46.81000000    40.24000000    97.12000000
   H     47.39000000    39.29000000    99.45000000
   H     46.84000000    37.72000000    98.81000000
   H     45.85000000    39.74000000   100.98000000
   H     44.15000000    39.67000000   100.62000000
   N     48.54000000    37.83000000    95.04000000
   C     48.81000000    37.45000000    93.66000000
   C     47.50000000    37.55000000    92.88000000
   O     46.48000000    37.02000000    93.30000000
   C     49.32000000    36.01000000    93.57000000
   C     49.68000000    35.70000000    92.13000000
   C     50.45000000    35.70000000    94.55000000
   H     48.05000000    37.19000000    95.64000000
   H     49.44000000    38.15000000    93.13000000
   H     48.48000000    35.37000000    93.84000000
   H     50.01000000    34.67000000    92.03000000
   H     48.88000000    35.80000000    91.40000000
   H     50.40000000    36.49000000    91.91000000
   H     50.65000000    34.65000000    94.35000000
   H     51.29000000    36.35000000    94.33000000
   H     50.11000000    35.80000000    95.58000000
   N     47.45000000    38.36000000    91.82000000
   C     46.25000000    38.51000000    91.03000000
   C     46.24000000    37.64000000    89.78000000
   O     47.26000000    37.05000000    89.43000000
   C     45.92000000    39.98000000    90.79000000
   C     46.53000000    40.52000000    89.51000000
   N     47.82000000    40.88000000    89.49000000
   O     45.94000000    40.69000000    88.45000000
   H     48.25000000    38.93000000    91.60000000
   H     45.40000000    37.97000000    91.46000000
   H     46.37000000    40.57000000    91.59000000
   H     44.85000000    40.21000000    90.88000000
   H     48.36000000    40.92000000    90.35000000
   H     48.10000000    41.37000000    88.66000000
   N     45.21000000    37.62000000    88.93000000
   C     45.19000000    36.81000000    87.73000000
   C     46.33000000    37.16000000    86.77000000
   O     46.95000000    36.27000000    86.20000000
   C     43.78000000    36.91000000    87.16000000
   C     43.68000000    36.55000000    85.70000000
   C     43.65000000    35.19000000    85.35000000
   C     43.78000000    37.55000000    84.73000000
   C     43.85000000    34.85000000    84.00000000
   C     43.93000000    37.21000000    83.38000000
   C     43.96000000    35.85000000    83.01000000
   O     44.21000000    35.49000000    81.72000000
   H     44.34000000    38.03000000    89.25000000
   H     45.39000000    35.77000000    87.98000000
   H     43.46000000    37.94000000    87.33000000
   H     43.09000000    36.27000000    87.70000000
   H     43.72000000    34.38000000    86.06000000
   H     43.89000000    38.54000000    85.13000000
   H     44.07000000    33.81000000    83.82000000
   H     44.17000000    37.97000000    82.65000000
   H     44.40000000    36.24000000    81.14000000
   N     46.61000000    38.45000000    86.60000000
   C     47.72000000    38.79000000    85.73000000
   C     49.10000000    38.49000000    86.30000000
   O     50.09000000    38.23000000    85.61000000
   C     47.67000000    40.29000000    85.42000000
   C     48.44000000    40.71000000    84.17000000
   C     48.49000000    42.23000000    84.27000000
   O     49.32000000    42.76000000    85.04000000
   O     47.67000000    42.90000000    83.61000000
   H     46.08000000    39.17000000    87.08000000
   H     47.58000000    38.25000000    84.80000000
   H     48.19000000    40.84000000    86.20000000
   H     46.66000000    40.70000000    85.35000000
   H     48.11000000    40.34000000    83.21000000
   H     49.48000000    40.38000000    84.13000000
   N     49.31000000    38.32000000    87.61000000
   C     50.55000000    37.88000000    88.21000000
   C     50.57000000    36.36000000    88.32000000
   O     51.61000000    35.72000000    88.44000000
   C     50.74000000    38.45000000    89.61000000
   C     50.99000000    39.96000000    89.63000000
   C     50.75000000    40.48000000    91.04000000
   O     51.60000000    41.21000000    91.58000000
   O     49.62000000    40.42000000    91.57000000
   H     48.55000000    38.48000000    88.25000000
   H     51.44000000    38.25000000    87.70000000
   H     51.62000000    38.05000000    90.12000000
   H     49.86000000    38.19000000    90.19000000
   H     50.36000000    40.46000000    88.89000000
   H     52.03000000    40.09000000    89.33000000
   N     49.42000000    35.69000000    88.18000000
   C     49.36000000    34.25000000    88.03000000
   H     48.52200000    33.98700000    87.38400000
   H     50.28800000    33.89200000    87.58400000
   H     49.22300000    33.78800000    89.00800000
   H     48.58000000    36.24000000    88.07000000
  Ca     50.18000000    42.07000000    93.72000000
   O     48.53000000    43.60000000    92.02000000
   H     49.30000000    44.04000000    91.66000000
   H     47.89000000    43.61000000    91.30000000
   O     47.44000000    41.98000000    94.10000000
   H     46.68000000    42.02000000    94.69000000
   H     47.28000000    42.68000000    93.46000000

Ca 1.00



