%chk=loop2.holoCaM.run35.water1.chk
%nprocshared=20
%mem=10GB
%nosave
#b3lyp/svp scf=(tight,noincore,xqc) Test 
#IOP(5/87=12) Density=Current Pop=(MK,readradii) iop(6/33=2) iop(6/42=6)

loop2.holoCaM.run35.water1 

   -2  1 
   C     70.22000000    77.00000000   115.68900000
   C     70.27000000    77.30000000   117.17900000
   O     71.30000000    77.69000000   117.72900000
   H     70.13400000    77.93400000   115.13400000
   H     71.13200000    76.48300000   115.39100000
   H     69.35800000    76.36900000   115.47400000
   N     69.18000000    77.10000000   117.92900000
   C     69.22000000    76.92000000   119.35900000
   C     70.00000000    75.71000000   119.85900000
   O     69.49000000    74.60000000   119.68900000
   C     67.85000000    76.91000000   120.02900000
   C     67.87000000    77.09000000   121.53900000
   O     68.91000000    77.31000000   122.18900000
   O     66.78000000    76.95000000   122.14900000
   H     68.30000000    76.93000000   117.46900000
   H     69.62000000    77.86000000   119.73900000
   H     67.31000000    76.00000000   119.77900000
   H     67.41000000    77.81000000   119.59900000
   N     71.23000000    76.00000000   120.28900000
   C     72.28000000    75.06000000   120.60900000
   C     72.35000000    74.79000000   122.10900000
   O     73.10000000    73.90000000   122.49900000
   C     73.61000000    75.45000000   119.97900000
   H     71.40000000    76.99000000   120.36900000
   H     71.99000000    74.09000000   120.19900000
   H     74.22000000    74.56000000   120.12900000
   H     73.42000000    75.58000000   118.91900000
   H     74.04000000    76.32000000   120.48900000
   N     71.65000000    75.58000000   122.92900000
   C     71.45000000    75.15000000   124.29900000
   C     70.03000000    74.65000000   124.53900000
   O     69.78000000    74.19000000   125.64900000
   C     71.97000000    76.22000000   125.24900000
   C     71.23000000    77.51000000   124.91900000
   O     71.80000000    78.52000000   124.45900000
   O     70.04000000    77.70000000   125.25900000
   H     71.18000000    76.40000000   122.56900000
   H     72.19000000    74.37000000   124.50900000
   H     73.03000000    76.27000000   124.99900000
   H     71.85000000    75.93000000   126.28900000
   N     69.07000000    74.83000000   123.62900000
   C     67.88000000    74.01000000   123.58900000
   C     66.75000000    74.46000000   124.49900000
   O     65.80000000    73.72000000   124.74900000
   H     69.29000000    75.39000000   122.81900000
   H     68.17000000    73.01000000   123.93900000
   H     67.54000000    73.87000000   122.56900000
   N     66.82000000    75.67000000   125.05900000
   C     65.72000000    76.21000000   125.83900000
   C     64.48000000    76.56000000   125.02900000
   O     63.36000000    76.56000000   125.53900000
   C     66.26000000    77.41000000   126.60900000
   C     66.28000000    78.70000000   125.81900000
   N     65.28000000    79.59000000   125.94900000
   O     67.09000000    78.97000000   124.93900000
   H     67.60000000    76.23000000   124.73900000
   H     65.42000000    75.48000000   126.58900000
   H     67.25000000    77.14000000   126.98900000
   H     65.67000000    77.52000000   127.51900000
   H     64.55000000    79.41000000   126.62900000
   H     65.41000000    80.45000000   125.44900000
   N     64.57000000    76.90000000   123.73900000
   C     63.50000000    77.52000000   122.98900000
   C     63.66000000    78.97000000   122.54900000
   O     62.69000000    79.52000000   122.03900000
   H     65.45000000    76.77000000   123.25900000
   H     62.63000000    77.48000000   123.64900000
   H     63.23000000    76.82000000   122.18900000
   N     64.77000000    79.68000000   122.78900000
   C     65.03000000    81.04000000   122.35900000
   C     66.44000000    81.12000000   121.77900000
   O     67.28000000    80.29000000   122.12900000
   C     64.80000000    82.12000000   123.41900000
   C     63.34000000    82.09000000   123.86900000
   O     65.66000000    82.04000000   124.52900000
   H     65.49000000    79.21000000   123.29900000
   H     64.33000000    81.21000000   121.53900000
   H     65.04000000    83.05000000   122.90900000
   H     65.51000000    82.87000000   124.98900000
   H     63.15000000    81.19000000   124.44900000
   H     63.07000000    82.92000000   124.51900000
   H     62.82000000    82.15000000   122.90900000
   N     66.60000000    81.97000000   120.76900000
   C     67.78000000    82.24000000   119.97900000
   C     68.60000000    83.35000000   120.61900000
   O     68.10000000    84.43000000   120.92900000
   C     67.40000000    82.61000000   118.54900000
   C     66.81000000    81.39000000   117.84900000
   C     68.64000000    83.08000000   117.78900000
   C     66.02000000    81.82000000   116.60900000
   H     65.78000000    82.51000000   120.52900000
   H     68.41000000    81.35000000   119.90900000
   H     66.67000000    83.41000000   118.62900000
   H     66.21000000    80.93000000   118.63900000
   H     67.66000000    80.76000000   117.58900000
   H     68.43000000    83.16000000   116.72900000
   H     68.93000000    84.09000000   118.07900000
   H     69.43000000    82.35000000   117.96900000
   H     66.60000000    82.46000000   115.94900000
   H     65.64000000    80.96000000   116.06900000
   H     65.13000000    82.39000000   116.89900000
   N     69.89000000    83.12000000   120.89900000
   C     70.86000000    84.05000000   121.44900000
   C     71.55000000    84.65000000   120.23900000
   O     71.42000000    84.14000000   119.12900000
   C     71.83000000    83.43000000   122.43900000
   C     71.24000000    82.63000000   123.59900000
   O     71.35000000    81.39000000   123.48900000
   O     70.73000000    83.22000000   124.57900000
   H     70.19000000    82.21000000   120.57900000
   H     70.30000000    84.83000000   121.95900000
   H     72.44000000    84.17000000   122.94900000
   H     72.57000000    82.83000000   121.89900000
   N     72.29000000    85.76000000   120.35900000
   C     73.05000000    86.28000000   119.23900000
   C     74.10000000    85.36000000   118.62900000
   O     74.12000000    85.25000000   117.39900000
   C     73.51000000    87.70000000   119.56900000
   C     74.15000000    88.42000000   118.40900000
   C     73.40000000    88.76000000   117.28900000
   C     75.53000000    88.65000000   118.35900000
   C     74.02000000    89.39000000   116.19900000
   C     76.13000000    89.32000000   117.27900000
   C     75.39000000    89.70000000   116.15900000
   H     72.23000000    86.19000000   121.25900000
   H     72.34000000    86.45000000   118.42900000
   H     74.08000000    87.71000000   120.49900000
   H     72.62000000    88.25000000   119.87900000
   H     72.33000000    88.61000000   117.30900000
   H     76.18000000    88.53000000   119.21900000
   H     73.39000000    89.69000000   115.37900000
   H     77.20000000    89.49000000   117.27900000
   H     75.75000000    90.17000000   115.25900000
   N     74.98000000    84.70000000   119.37900000
   C     75.85000000    83.65000000   118.87900000
   C     75.08000000    82.47000000   118.30900000
   O     75.63000000    81.78000000   117.45900000
   C     76.62000000    83.11000000   120.07900000
   C     76.60000000    84.28000000   121.06900000
   C     75.23000000    84.90000000   120.78900000
   H     76.55000000    84.10000000   118.16900000
   H     76.18000000    82.26000000   120.60900000
   H     77.66000000    82.93000000   119.81900000
   H     76.66000000    83.90000000   122.08900000
   H     77.39000000    85.00000000   120.86900000
   H     74.53000000    84.26000000   121.32900000
   H     75.22000000    85.95000000   121.06900000
   N     73.79000000    82.29000000   118.60900000
   C     73.03000000    81.34000000   117.82900000
   C     72.40000000    81.91000000   116.56900000
   O     72.23000000    81.18000000   115.59900000
   C     71.87000000    80.73000000   118.61900000
   C     72.41000000    80.17000000   119.93900000
   C     71.31000000    79.68000000   120.85900000
   O     70.20000000    80.26000000   120.95900000
   O     71.40000000    78.56000000   121.40900000
   H     73.32000000    82.99000000   119.16900000
   H     73.74000000    80.56000000   117.53900000
   H     71.34000000    79.98000000   118.04900000
   H     71.17000000    81.51000000   118.89900000
   H     72.98000000    80.88000000   120.53900000
   H     73.15000000    79.42000000   119.67900000
   N     72.10000000    83.21000000   116.52900000
   C     71.53000000    83.86000000   115.35900000
   H     70.63300000    84.40700000   115.64900000
   H     72.25800000    84.55300000   114.93700000
   H     71.27100000    83.10700000   114.61500000
   H     72.11000000    83.79000000   117.35900000
  Ca     69.55000000    79.54000000   123.37900000
   O     68.33000000    81.74000000   124.46900000
   H     67.41000000    81.97000000   124.55900000
   H     68.79000000    82.31000000   125.08900000

Ca 1.00



