%chk=loop2.holoCaM-CaMKII.run96.water0.chk
%nprocshared=20
%mem=10GB
%nosave
#b3lyp/svp scf=(tight,noincore,xqc) Test 
#IOP(5/87=12) Density=Current Pop=(MK,readradii) iop(6/33=2) iop(6/42=6)

loop2.holoCaM-CaMKII.run96.water0 

   -2  1 
   C     42.46000000    26.81000000   -26.80500000
   C     43.21000000    25.72000000   -27.57500000
   O     44.43000000    25.67000000   -27.52500000
   H     41.47600000    26.43900000   -26.51700000
   H     43.02300000    27.07700000   -25.91100000
   H     42.34500000    27.69000000   -27.43900000
   N     42.55000000    24.96000000   -28.45500000
   C     43.14000000    23.85000000   -29.17500000
   C     44.02000000    24.40000000   -30.28500000
   O     43.56000000    25.16000000   -31.13500000
   C     42.06000000    22.92000000   -29.72500000
   C     42.57000000    21.57000000   -30.21500000
   O     43.78000000    21.29000000   -30.37500000
   O     41.71000000    20.71000000   -30.50500000
   H     41.55000000    25.03000000   -28.42500000
   H     43.70000000    23.31000000   -28.40500000
   H     41.55000000    23.43000000   -30.54500000
   H     41.24000000    22.82000000   -29.02500000
   N     45.28000000    23.97000000   -30.36500000
   C     46.30000000    24.52000000   -31.23500000
   C     46.63000000    23.55000000   -32.36500000
   O     47.43000000    23.91000000   -33.22500000
   C     47.48000000    24.95000000   -30.37500000
   H     45.62000000    23.33000000   -29.65500000
   H     45.96000000    25.49000000   -31.59500000
   H     47.09000000    25.78000000   -29.79500000
   H     47.81000000    24.12000000   -29.74500000
   H     48.31000000    25.23000000   -31.01500000
   N     46.03000000    22.36000000   -32.35500000
   C     46.17000000    21.42000000   -33.45500000
   C     44.85000000    20.86000000   -33.98500000
   O     44.94000000    20.10000000   -34.94500000
   C     47.14000000    20.32000000   -33.04500000
   C     46.67000000    19.69000000   -31.74500000
   O     47.44000000    19.73000000   -30.76500000
   O     45.52000000    19.21000000   -31.60500000
   H     45.46000000    22.15000000   -31.55500000
   H     46.70000000    21.84000000   -34.30500000
   H     48.10000000    20.84000000   -32.93500000
   H     47.12000000    19.56000000   -33.82500000
   N     43.75000000    21.14000000   -33.28500000
   C     42.38000000    20.85000000   -33.66500000
   C     41.90000000    19.41000000   -33.54500000
   O     40.83000000    19.05000000   -34.02500000
   H     43.81000000    21.46000000   -32.33500000
   H     42.20000000    21.25000000   -34.66500000
   H     41.73000000    21.46000000   -33.03500000
   N     42.72000000    18.63000000   -32.84500000
   C     42.36000000    17.25000000   -32.57500000
   C     41.21000000    16.96000000   -31.61500000
   O     40.80000000    15.82000000   -31.39500000
   C     43.64000000    16.51000000   -32.21500000
   C     44.22000000    16.70000000   -30.82500000
   N     45.28000000    15.93000000   -30.55500000
   O     43.88000000    17.49000000   -29.94500000
   H     43.57000000    19.02000000   -32.46500000
   H     42.12000000    16.76000000   -33.51500000
   H     44.45000000    16.89000000   -32.84500000
   H     43.52000000    15.44000000   -32.38500000
   H     45.59000000    15.23000000   -31.21500000
   H     45.73000000    16.08000000   -29.66500000
   N     40.55000000    17.96000000   -31.02500000
   C     39.56000000    17.85000000   -29.98500000
   C     39.90000000    17.45000000   -28.55500000
   O     39.05000000    17.10000000   -27.73500000
   H     40.83000000    18.87000000   -31.36500000
   H     38.85000000    17.06000000   -30.22500000
   H     39.02000000    18.79000000   -29.84500000
   N     41.20000000    17.45000000   -28.24500000
   C     41.87000000    17.04000000   -27.03500000
   C     42.92000000    18.04000000   -26.57500000
   O     43.52000000    18.72000000   -27.41500000
   C     42.50000000    15.66000000   -27.20500000
   C     42.83000000    14.96000000   -25.88500000
   O     41.69000000    14.80000000   -27.97500000
   H     41.86000000    17.72000000   -28.96500000
   H     41.11000000    16.92000000   -26.26500000
   H     43.45000000    15.75000000   -27.73500000
   H     42.14000000    14.68000000   -28.81500000
   H     43.73000000    15.23000000   -25.33500000
   H     41.95000000    15.17000000   -25.27500000
   H     42.91000000    13.89000000   -26.03500000
   N     43.27000000    18.15000000   -25.29500000
   C     44.23000000    19.12000000   -24.80500000
   C     45.62000000    18.53000000   -24.59500000
   O     45.81000000    17.38000000   -24.21500000
   C     43.69000000    19.72000000   -23.51500000
   C     42.55000000    20.69000000   -23.83500000
   C     44.64000000    20.35000000   -22.49500000
   C     42.98000000    21.98000000   -24.50500000
   H     42.83000000    17.51000000   -24.64500000
   H     44.43000000    20.01000000   -25.40500000
   H     43.23000000    18.90000000   -22.96500000
   H     42.05000000    20.99000000   -22.91500000
   H     41.89000000    20.17000000   -24.53500000
   H     45.06000000    19.52000000   -21.93500000
   H     45.31000000    21.04000000   -23.00500000
   H     44.02000000    20.81000000   -21.72500000
   H     43.16000000    21.78000000   -25.56500000
   H     42.16000000    22.69000000   -24.45500000
   H     43.82000000    22.40000000   -23.95500000
   N     46.65000000    19.37000000   -24.75500000
   C     48.07000000    19.18000000   -24.59500000
   C     48.70000000    20.19000000   -23.64500000
   O     48.03000000    21.20000000   -23.45500000
   C     48.77000000    19.13000000   -25.95500000
   C     48.12000000    18.26000000   -27.01500000
   O     48.62000000    17.12000000   -27.14500000
   O     47.25000000    18.63000000   -27.83500000
   H     46.37000000    20.31000000   -24.99500000
   H     48.23000000    18.20000000   -24.13500000
   H     49.84000000    18.91000000   -25.85500000
   H     48.79000000    20.14000000   -26.36500000
   N     49.88000000    19.98000000   -23.06500000
   C     50.32000000    20.89000000   -22.03500000
   C     50.49000000    22.34000000   -22.46500000
   O     50.04000000    23.15000000   -21.65500000
   C     51.57000000    20.30000000   -21.38500000
   C     52.20000000    21.15000000   -20.30500000
   C     53.45000000    21.71000000   -20.55500000
   C     51.52000000    21.44000000   -19.10500000
   C     54.01000000    22.59000000   -19.61500000
   C     52.01000000    22.39000000   -18.20500000
   C     53.22000000    23.01000000   -18.54500000
   H     50.50000000    19.23000000   -23.32500000
   H     49.53000000    20.97000000   -21.28500000
   H     52.29000000    20.29000000   -22.20500000
   H     51.40000000    19.27000000   -21.06500000
   H     54.02000000    21.53000000   -21.45500000
   H     50.55000000    21.04000000   -18.85500000
   H     54.98000000    23.06000000   -19.69500000
   H     51.46000000    22.56000000   -17.29500000
   H     53.65000000    23.81000000   -17.95500000
   N     51.10000000    22.67000000   -23.61500000
   C     51.03000000    24.06000000   -24.02500000
   C     49.69000000    24.67000000   -24.42500000
   O     49.62000000    25.89000000   -24.53500000
   C     52.00000000    24.07000000   -25.20500000
   C     51.95000000    22.67000000   -25.81500000
   C     51.88000000    21.86000000   -24.52500000
   H     51.33000000    24.68000000   -23.18500000
   H     51.56000000    24.72000000   -25.96500000
   H     53.03000000    24.31000000   -24.93500000
   H     51.04000000    22.63000000   -26.41500000
   H     52.89000000    22.41000000   -26.31500000
   H     51.39000000    20.93000000   -24.80500000
   H     52.89000000    21.86000000   -24.11500000
   N     48.61000000    23.90000000   -24.57500000
   C     47.28000000    24.47000000   -24.65500000
   C     46.69000000    24.64000000   -23.26500000
   O     46.08000000    25.68000000   -23.01500000
   C     46.42000000    23.51000000   -25.46500000
   C     46.94000000    23.38000000   -26.89500000
   C     46.26000000    22.23000000   -27.62500000
   O     46.55000000    22.04000000   -28.82500000
   O     45.48000000    21.40000000   -27.10500000
   H     48.72000000    22.94000000   -24.29500000
   H     47.32000000    25.41000000   -25.19500000
   H     45.38000000    23.84000000   -25.41500000
   H     46.50000000    22.55000000   -24.94500000
   H     48.02000000    23.22000000   -26.89500000
   H     46.75000000    24.24000000   -27.54500000
   N     46.92000000    23.76000000   -22.28500000
   C     46.43000000    24.02000000   -20.94500000
   H     45.40500000    23.66000000   -20.85700000
   H     47.05900000    23.50300000   -20.22100000
   H     46.45600000    25.09200000   -20.75000000
   H     47.53000000    22.96000000   -22.33500000
  Ca     45.18000000    19.69000000   -29.09500000

Ca 1.00



