%chk=loop1.apoCaM-CA-Ng.Init295.run45.water6.chk
%nprocshared=20
%mem=10GB
%nosave
#b3lyp/svp scf=(tight,noincore,xqc) Test 
#IOP(5/87=12) Density=Current Pop=(MK,readradii) iop(6/33=2) iop(6/42=6)

loop1.apoCaM-CA-Ng.Init295.run45.water6 

   0  1 
   C     93.65000000    54.82000000    30.21000000
   C     93.37000000    54.90000000    28.72000000
   O     92.75000000    55.82000000    28.17000000
   H     94.42700000    55.53800000    30.47200000
   H     92.74000000    55.05200000    30.76400000
   H     93.98500000    53.81400000    30.46400000
   N     94.01000000    53.99000000    27.97000000
   C     93.84000000    54.11000000    26.54000000
   C     92.40000000    54.05000000    26.06000000
   O     91.73000000    53.05000000    26.31000000
   C     94.66000000    53.08000000    25.77000000
   C     94.51000000    53.17000000    24.26000000
   O     94.44000000    52.08000000    23.65000000
   O     94.33000000    54.27000000    23.70000000
   H     94.39000000    53.13000000    28.33000000
   H     94.17000000    55.12000000    26.29000000
   H     94.18000000    52.13000000    26.01000000
   H     95.68000000    53.18000000    26.14000000
   N     92.00000000    55.00000000    25.21000000
   C     90.77000000    55.10000000    24.46000000
   C     90.80000000    54.54000000    23.04000000
   O     89.80000000    53.98000000    22.61000000
   C     90.35000000    56.57000000    24.48000000
   C     88.94000000    56.76000000    23.93000000
   C     88.50000000    58.18000000    24.25000000
   C     87.01000000    58.20000000    23.92000000
   N     86.79000000    58.19000000    22.47000000
   H     92.67000000    55.75000000    25.05000000
   H     90.01000000    54.46000000    24.91000000
   H     91.01000000    57.16000000    23.84000000
   H     90.42000000    56.98000000    25.48000000
   H     88.22000000    56.09000000    24.41000000
   H     88.89000000    56.58000000    22.85000000
   H     89.07000000    58.82000000    23.57000000
   H     88.67000000    58.49000000    25.28000000
   H     86.59000000    59.12000000    24.34000000
   H     86.41000000    57.40000000    24.34000000
   H     86.73000000    57.24000000    22.13000000
   H     85.94000000    58.62000000    22.12000000
   H     87.55000000    58.54000000    21.91000000
   N     91.96000000    54.62000000    22.37000000
   C     92.08000000    54.49000000    20.93000000
   C     92.44000000    53.10000000    20.44000000
   O     92.33000000    52.82000000    19.25000000
   C     92.96000000    55.57000000    20.31000000
   C     92.62000000    57.00000000    20.68000000
   O     91.55000000    57.48000000    20.22000000
   O     93.36000000    57.67000000    21.43000000
   H     92.70000000    55.09000000    22.86000000
   H     91.09000000    54.75000000    20.55000000
   H     93.03000000    55.43000000    19.23000000
   H     93.95000000    55.39000000    20.73000000
   N     92.76000000    52.19000000    21.36000000
   C     92.78000000    50.75000000    21.15000000
   C     94.16000000    50.22000000    20.81000000
   O     94.32000000    49.02000000    20.60000000
   H     92.94000000    52.52000000    22.30000000
   H     92.03000000    50.39000000    20.45000000
   H     92.49000000    50.29000000    22.10000000
   N     95.22000000    51.03000000    20.73000000
   C     96.47000000    50.73000000    20.06000000
   C     97.60000000    50.96000000    21.05000000
   O     97.63000000    51.75000000    21.99000000
   C     96.69000000    51.48000000    18.75000000
   C     95.41000000    51.59000000    17.93000000
   O     95.09000000    52.73000000    17.55000000
   O     94.90000000    50.55000000    17.47000000
   H     95.06000000    51.97000000    21.05000000
   H     96.45000000    49.68000000    19.78000000
   H     97.42000000    50.96000000    18.13000000
   H     97.15000000    52.45000000    18.97000000
   N     98.67000000    50.20000000    20.79000000
   C     99.88000000    50.27000000    21.59000000
   C     99.68000000    49.90000000    23.05000000
   O     98.73000000    49.20000000    23.40000000
   H     98.68000000    49.61000000    19.96000000
   H    100.20000000    51.31000000    21.58000000
   H    100.72000000    49.69000000    21.21000000
   N    100.44000000    50.45000000    23.99000000
   C    100.67000000    50.00000000    25.35000000
   C    102.11000000    49.54000000    25.54000000
   O    102.95000000    49.59000000    24.65000000
   C    100.27000000    51.07000000    26.36000000
   C    100.97000000    52.42000000    26.40000000
   O     98.94000000    51.54000000    26.24000000
   H    101.05000000    51.15000000    23.59000000
   H    100.00000000    49.15000000    25.43000000
   H    100.37000000    50.55000000    27.31000000
   H     98.85000000    51.93000000    25.36000000
   H    102.06000000    52.36000000    26.33000000
   H    100.70000000    53.10000000    25.59000000
   H    100.72000000    52.88000000    27.36000000
   N    102.46000000    49.29000000    26.81000000
   C    103.78000000    49.20000000    27.39000000
   C    104.45000000    47.83000000    27.33000000
   O    105.67000000    47.69000000    27.25000000
   C    103.86000000    49.78000000    28.80000000
   C    105.27000000    50.07000000    29.31000000
   C    103.11000000    48.96000000    29.85000000
   C    105.24000000    50.68000000    30.70000000
   H    101.66000000    49.21000000    27.41000000
   H    104.41000000    49.91000000    26.84000000
   H    103.41000000    50.77000000    28.90000000
   H    105.72000000    50.74000000    28.58000000
   H    105.84000000    49.14000000    29.31000000
   H    103.79000000    48.18000000    30.20000000
   H    102.81000000    49.54000000    30.72000000
   H    102.22000000    48.48000000    29.45000000
   H    105.15000000    50.07000000    31.60000000
   H    106.17000000    51.24000000    30.85000000
   H    104.49000000    51.47000000    30.71000000
   N    103.59000000    46.81000000    27.35000000
   C    104.01000000    45.43000000    27.50000000
   C    103.54000000    44.79000000    28.80000000
   O    102.54000000    45.17000000    29.41000000
   C    103.44000000    44.70000000    26.29000000
   C    103.65000000    45.33000000    24.91000000
   O    104.13000000    43.48000000    26.15000000
   H    102.60000000    46.95000000    27.30000000
   H    105.09000000    45.36000000    27.51000000
   H    102.36000000    44.67000000    26.43000000
   H    103.54000000    42.91000000    25.66000000
   H    103.55000000    44.53000000    24.18000000
   H    102.86000000    46.07000000    24.77000000
   H    104.64000000    45.77000000    24.82000000
   N    104.24000000    43.70000000    29.14000000
   C    104.10000000    42.85000000    30.31000000
   C    104.62000000    43.45000000    31.60000000
   O    104.16000000    43.16000000    32.70000000
   C    104.71000000    41.50000000    29.94000000
   C    104.70000000    40.48000000    31.07000000
   O    106.05000000    41.68000000    29.54000000
   H    105.07000000    43.53000000    28.60000000
   H    103.05000000    42.62000000    30.46000000
   H    104.12000000    41.04000000    29.15000000
   H    106.19000000    40.99000000    28.88000000
   H    105.52000000    40.72000000    31.75000000
   H    103.80000000    40.56000000    31.69000000
   H    104.75000000    39.43000000    30.77000000
   N    105.58000000    44.37000000    31.46000000
   C    106.24000000    45.17000000    32.47000000
   C    105.22000000    46.15000000    33.04000000
   O    104.11000000    46.41000000    32.58000000
   C    107.42000000    45.90000000    31.84000000
   C    108.60000000    44.99000000    31.51000000
   C    109.62000000    45.74000000    30.65000000
   C    110.77000000    44.91000000    30.11000000
   N    110.30000000    43.97000000    29.07000000
   H    105.77000000    44.70000000    30.52000000
   H    106.65000000    44.51000000    33.24000000
   H    107.83000000    46.63000000    32.54000000
   H    107.04000000    46.39000000    30.94000000
   H    108.11000000    44.30000000    30.83000000
   H    109.03000000    44.59000000    32.43000000
   H    110.03000000    46.62000000    31.15000000
   H    109.08000000    46.24000000    29.84000000
   H    111.33000000    44.44000000    30.92000000
   H    111.46000000    45.58000000    29.59000000
   H    111.05000000    43.46000000    28.63000000
   H    109.67000000    43.20000000    29.28000000
   H    109.83000000    44.45000000    28.32000000
   N    105.54000000    46.73000000    34.20000000
   C    104.80000000    47.68000000    35.00000000
   C    104.26000000    46.96000000    36.23000000
   O    104.99000000    46.28000000    36.96000000
   C    105.64000000    48.86000000    35.48000000
   C    106.05000000    49.91000000    34.46000000
   C    106.99000000    50.99000000    34.97000000
   O    106.58000000    52.16000000    35.15000000
   O    108.21000000    50.73000000    34.89000000
   H    106.44000000    46.50000000    34.59000000
   H    103.96000000    48.21000000    34.54000000
   H    106.50000000    48.50000000    36.03000000
   H    104.99000000    49.36000000    36.21000000
   H    105.16000000    50.40000000    34.06000000
   H    106.53000000    49.42000000    33.62000000
   N    103.02000000    47.06000000    36.71000000
   C    101.85000000    47.47000000    35.96000000
   H    101.06300000    47.77100000    36.65100000
   H    102.10700000    48.31000000    35.31500000
   H    101.49800000    46.63800000    35.35100000
   H    102.82000000    46.45000000    37.48000000
  Ca     92.59000000    52.02000000    16.79000000
   O     90.92000000    50.09000000    17.95000000
   H     90.83000000    49.45000000    18.66000000
   H     90.29000000    49.81000000    17.29000000
   O     90.05000000    53.07000000    17.29000000
   H     89.44000000    53.03000000    16.55000000
   H     89.97000000    53.97000000    17.61000000
   O     92.49000000    54.55000000    16.13000000
   H     93.35000000    54.95000000    16.25000000
   H     91.93000000    55.28000000    15.86000000
   O     91.07000000    52.24000000    14.73000000
   H     91.09000000    51.62000000    14.00000000
   H     90.59000000    52.99000000    14.38000000
   O     94.26000000    52.27000000    14.79000000
   H     94.72000000    51.46000000    14.54000000
   H     94.28000000    52.80000000    13.99000000
   O     92.57000000    49.62000000    15.67000000
   H     92.47000000    48.98000000    16.38000000
   H     92.51000000    49.10000000    14.87000000

Ca 1.00



