%chk=loop4.holoCaM-CaMKII.run2.water2.chk
%nprocshared=20
%mem=10GB
%nosave
#b3lyp/svp scf=(tight,noincore,xqc) Test 
#IOP(5/87=12) Density=Current Pop=(MK,readradii) iop(6/33=2) iop(6/42=6)

loop4.holoCaM-CaMKII.run2.water2 

   -3  1 
   C     64.18000000    56.38000000    41.93000000
   C     63.09000000    56.27000000    42.99000000
   O     61.93000000    56.63000000    42.82000000
   H     65.09500000    55.91700000    42.30100000
   H     63.85800000    55.87000000    41.02200000
   H     64.36900000    57.43100000    41.71000000
   N     63.51000000    55.76000000    44.15000000
   C     62.75000000    55.81000000    45.38000000
   C     62.88000000    57.09000000    46.20000000
   O     63.95000000    57.44000000    46.68000000
   C     62.85000000    54.58000000    46.28000000
   C     62.08000000    54.59000000    47.59000000
   O     60.91000000    55.04000000    47.63000000
   O     62.75000000    54.21000000    48.58000000
   H     64.44000000    55.37000000    44.21000000
   H     61.72000000    55.71000000    45.03000000
   H     63.91000000    54.52000000    46.52000000
   H     62.58000000    53.69000000    45.71000000
   N     61.73000000    57.72000000    46.48000000
   C     61.73000000    59.06000000    47.01000000
   C     61.05000000    59.12000000    48.37000000
   O     61.51000000    59.89000000    49.21000000
   C     61.10000000    60.08000000    46.07000000
   C     61.38000000    59.76000000    44.60000000
   C     61.55000000    61.49000000    46.43000000
   C     60.97000000    60.89000000    43.66000000
   H     60.85000000    57.33000000    46.18000000
   H     62.74000000    59.45000000    47.09000000
   H     60.03000000    60.17000000    46.24000000
   H     60.79000000    58.89000000    44.32000000
   H     62.45000000    59.62000000    44.43000000
   H     62.62000000    61.57000000    46.22000000
   H     61.08000000    62.27000000    45.83000000
   H     61.31000000    61.75000000    47.46000000
   H     60.92000000    60.50000000    42.64000000
   H     60.04000000    61.38000000    43.93000000
   H     61.82000000    61.58000000    43.73000000
   N     60.19000000    58.18000000    48.76000000
   C     59.61000000    58.11000000    50.09000000
   C     60.28000000    57.09000000    51.01000000
   O     60.09000000    57.26000000    52.22000000
   C     58.09000000    58.05000000    50.18000000
   C     57.52000000    56.87000000    49.40000000
   O     56.31000000    56.85000000    49.08000000
   O     58.26000000    55.93000000    49.05000000
   H     60.12000000    57.39000000    48.14000000
   H     59.80000000    59.07000000    50.56000000
   H     57.62000000    58.98000000    49.86000000
   H     57.79000000    57.92000000    51.22000000
   N     61.25000000    56.32000000    50.53000000
   C     62.26000000    55.67000000    51.36000000
   C     61.82000000    54.25000000    51.70000000
   O     61.82000000    54.04000000    52.91000000
   H     61.38000000    56.46000000    49.54000000
   H     62.28000000    56.23000000    52.29000000
   H     63.24000000    55.68000000    50.90000000
   N     61.50000000    53.32000000    50.80000000
   C     61.06000000    51.95000000    51.00000000
   C     61.81000000    51.01000000    50.07000000
   O     61.55000000    49.81000000    50.09000000
   C     59.55000000    51.87000000    50.82000000
   C     59.07000000    52.18000000    49.40000000
   O     57.86000000    52.44000000    49.24000000
   O     59.82000000    52.30000000    48.41000000
   H     61.57000000    53.65000000    49.85000000
   H     61.30000000    51.65000000    52.02000000
   H     59.15000000    52.55000000    51.56000000
   H     59.25000000    50.85000000    51.06000000
   N     62.68000000    51.56000000    49.22000000
   C     63.54000000    50.82000000    48.33000000
   C     62.77000000    50.20000000    47.16000000
   O     63.39000000    49.39000000    46.48000000
   H     62.66000000    52.55000000    49.02000000
   H     63.99000000    49.98000000    48.87000000
   H     64.40000000    51.43000000    48.05000000
   N     61.48000000    50.51000000    47.03000000
   C     60.62000000    50.27000000    45.90000000
   C     60.24000000    51.51000000    45.10000000
   O     60.09000000    52.59000000    45.68000000
   C     59.34000000    49.68000000    46.50000000
   C     59.46000000    48.44000000    47.38000000
   C     60.06000000    47.25000000    46.64000000
   N     61.38000000    47.26000000    46.48000000
   O     59.40000000    46.31000000    46.21000000
   H     61.17000000    51.21000000    47.70000000
   H     61.15000000    49.58000000    45.24000000
   H     58.66000000    49.52000000    45.67000000
   H     58.88000000    50.48000000    47.09000000
   H     58.44000000    48.10000000    47.53000000
   H     60.00000000    48.64000000    48.31000000
   H     61.93000000    48.07000000    46.75000000
   H     61.79000000    46.46000000    46.01000000
   N     59.81000000    51.26000000    43.87000000
   C     59.45000000    52.36000000    43.00000000
   C     58.08000000    52.07000000    42.40000000
   O     57.86000000    51.09000000    41.69000000
   C     60.50000000    52.61000000    41.92000000
   C     60.18000000    53.77000000    40.99000000
   C     61.83000000    53.04000000    42.53000000
   H     59.99000000    50.39000000    43.38000000
   H     59.50000000    53.33000000    43.51000000
   H     60.70000000    51.77000000    41.25000000
   H     60.93000000    53.80000000    40.20000000
   H     59.22000000    53.73000000    40.47000000
   H     60.12000000    54.74000000    41.49000000
   H     62.21000000    52.41000000    43.33000000
   H     62.62000000    53.22000000    41.80000000
   H     61.63000000    54.01000000    42.98000000
   N     57.08000000    52.89000000    42.72000000
   C     55.75000000    52.92000000    42.14000000
   C     55.60000000    53.87000000    40.97000000
   O     56.48000000    54.70000000    40.76000000
   C     54.76000000    53.23000000    43.26000000
   C     54.10000000    54.60000000    43.27000000
   N     54.39000000    55.55000000    44.15000000
   O     53.15000000    54.76000000    42.50000000
   H     57.30000000    53.64000000    43.36000000
   H     55.55000000    51.92000000    41.74000000
   H     55.16000000    53.29000000    44.27000000
   H     53.96000000    52.49000000    43.13000000
   H     55.15000000    55.41000000    44.81000000
   H     53.71000000    56.29000000    44.22000000
   N     54.55000000    53.72000000    40.15000000
   C     54.20000000    54.42000000    38.93000000
   C     54.22000000    55.93000000    39.11000000
   O     54.66000000    56.66000000    38.22000000
   C     52.92000000    54.00000000    38.23000000
   C     52.67000000    54.82000000    36.99000000
   C     53.48000000    54.71000000    35.86000000
   C     51.58000000    55.71000000    36.95000000
   C     53.18000000    55.50000000    34.74000000
   C     51.25000000    56.54000000    35.87000000
   C     52.10000000    56.41000000    34.76000000
   O     51.85000000    57.19000000    33.67000000
   H     53.90000000    53.03000000    40.50000000
   H     55.00000000    54.27000000    38.20000000
   H     52.05000000    54.11000000    38.88000000
   H     52.97000000    52.93000000    38.03000000
   H     54.36000000    54.09000000    35.80000000
   H     51.03000000    55.82000000    37.87000000
   H     53.66000000    55.30000000    33.80000000
   H     50.50000000    57.31000000    35.95000000
   H     51.18000000    57.85000000    33.90000000
   N     53.86000000    56.48000000    40.27000000
   C     53.88000000    57.88000000    40.63000000
   C     55.31000000    58.35000000    40.86000000
   O     55.75000000    59.43000000    40.45000000
   C     53.10000000    58.18000000    41.90000000
   C     52.59000000    59.61000000    42.09000000
   C     51.45000000    59.56000000    43.10000000
   O     50.33000000    60.00000000    42.79000000
   O     51.65000000    59.17000000    44.28000000
   H     53.71000000    55.78000000    40.99000000
   H     53.49000000    58.45000000    39.79000000
   H     53.60000000    57.89000000    42.82000000
   H     52.20000000    57.56000000    41.93000000
   H     52.22000000    60.12000000    41.20000000
   H     53.35000000    60.25000000    42.53000000
   N     56.18000000    57.56000000    41.49000000
   C     57.59000000    57.92000000    41.54000000
   C     58.28000000    57.80000000    40.19000000
   O     59.21000000    58.54000000    39.90000000
   C     58.25000000    57.07000000    42.61000000
   C     57.73000000    57.38000000    44.01000000
   C     58.23000000    56.34000000    45.01000000
   O     58.83000000    56.71000000    46.04000000
   O     58.05000000    55.11000000    44.86000000
   H     55.90000000    56.61000000    41.66000000
   H     57.82000000    58.93000000    41.88000000
   H     59.32000000    57.28000000    42.68000000
   H     58.21000000    56.00000000    42.39000000
   H     56.64000000    57.44000000    44.07000000
   H     58.05000000    58.37000000    44.33000000
   N     57.79000000    56.90000000    39.34000000
   C     58.28000000    56.57000000    38.02000000
   H     59.30300000    56.20200000    38.09400000
   H     57.64800000    55.79900000    37.58000000
   H     58.26000000    57.46000000    37.39100000
   H     57.04000000    56.31000000    39.68000000
  Ca     58.65000000    54.20000000    47.11000000
   O     56.94000000    52.53000000    46.12000000
   H     56.06000000    52.77000000    46.40000000
   H     56.83000000    51.67000000    45.70000000
   O     56.04000000    55.17000000    47.14000000
   H     56.11000000    55.62000000    47.98000000
   H     55.14000000    54.84000000    47.13000000

Ca 1.00



