%chk=loop3.holoCaM-CaMKII.run41.water3.chk
%nprocshared=20
%mem=10GB
%nosave
#b3lyp/svp scf=(tight,noincore,xqc) Test 
#IOP(5/87=12) Density=Current Pop=(MK,readradii) iop(6/33=2) iop(6/42=6)

loop3.holoCaM-CaMKII.run41.water3 

   0  1 
   C      1.42400000    42.29000000     7.86400000
   C      2.02400000    42.42000000     9.25400000
   O      3.01400000    41.74000000     9.53400000
   H      0.53400000    42.91500000     7.79300000
   H      2.15400000    42.61200000     7.12100000
   H      1.15300000    41.25000000     7.68100000
   N      1.47400000    43.28000000    10.11400000
   C      2.04400000    43.55000000    11.42400000
   C      1.54400000    42.62000000    12.52400000
   O      0.50400000    42.89000000    13.11400000
   C      1.90400000    45.04000000    11.74400000
   C      2.32400000    45.55000000    13.11400000
   O      3.22400000    44.98000000    13.75400000
   O      1.66400000    46.53000000    13.53400000
   H      0.58400000    43.70000000     9.90400000
   H      3.12400000    43.48000000    11.37400000
   H      0.86400000    45.26000000    11.50400000
   H      2.56400000    45.61000000    11.08400000
   N      2.25400000    41.53000000    12.78400000
   C      1.85400000    40.32000000    13.48400000
   C      1.73400000    40.50000000    14.99400000
   O      1.37400000    39.60000000    15.75400000
   C      2.76400000    39.13000000    13.19400000
   C      3.12400000    39.00000000    11.71400000
   C      1.98400000    38.76000000    10.72400000
   C      2.52400000    38.41000000     9.34400000
   N      1.57400000    37.82000000     8.38400000
   H      3.15400000    41.50000000    12.32400000
   H      0.83400000    40.05000000    13.21400000
   H      2.20400000    38.22000000    13.41400000
   H      3.64400000    39.13000000    13.83400000
   H      3.89400000    38.25000000    11.56400000
   H      3.57400000    39.92000000    11.35400000
   H      1.32400000    39.60000000    10.51400000
   H      1.34400000    37.95000000    11.08400000
   H      3.28400000    37.66000000     9.59400000
   H      3.08400000    39.26000000     8.95400000
   H      0.95400000    38.52000000     8.01400000
   H      1.99400000    37.21000000     7.69400000
   H      0.89400000    37.22000000     8.82400000
   N      2.04400000    41.69000000    15.50400000
   C      1.73400000    42.13000000    16.85400000
   C      1.19400000    43.54000000    17.07400000
   O      1.21400000    44.09000000    18.17400000
   C      2.94400000    41.81000000    17.73400000
   C      4.20400000    42.49000000    17.23400000
   O      5.27400000    41.92000000    17.55400000
   O      4.16400000    43.41000000    16.38400000
   H      2.52400000    42.39000000    14.95400000
   H      0.86400000    41.57000000    17.18400000
   H      3.02400000    40.72000000    17.72400000
   H      2.85400000    42.18000000    18.75400000
   N      0.82400000    44.14000000    15.94400000
   C     -0.03600000    45.31000000    15.93400000
   C      0.54400000    46.64000000    16.40400000
   O     -0.20600000    47.50000000    16.85400000
   H      0.96400000    43.61000000    15.09400000
   H     -0.98600000    45.09000000    16.41400000
   H     -0.16600000    45.45000000    14.86400000
   N      1.83400000    46.61000000    16.74400000
   C      2.50400000    47.74000000    17.33400000
   C      2.56400000    49.01000000    16.49400000
   O      2.92400000    50.11000000    16.88400000
   C      3.80400000    47.24000000    17.96400000
   C      4.90400000    47.48000000    16.94400000
   N      6.02400000    48.12000000    17.31400000
   O      4.94400000    46.99000000    15.81400000
   H      2.38400000    45.78000000    16.55400000
   H      1.90400000    48.05000000    18.19400000
   H      3.75400000    46.17000000    18.18400000
   H      4.09400000    47.81000000    18.84400000
   H      6.16400000    48.31000000    18.29400000
   H      6.83400000    48.22000000    16.73400000
   N      2.29400000    48.82000000    15.20400000
   C      2.24400000    49.78000000    14.12400000
   C      3.45400000    49.83000000    13.21400000
   O      3.63400000    50.78000000    12.45400000
   H      1.94400000    47.89000000    15.00400000
   H      2.12400000    50.77000000    14.57400000
   H      1.36400000    49.54000000    13.51400000
   N      4.33400000    48.83000000    13.27400000
   C      5.56400000    48.62000000    12.53400000
   C      5.95400000    47.21000000    12.10400000
   O      6.17400000    46.30000000    12.90400000
   C      6.62400000    49.17000000    13.47400000
   C      6.55400000    50.60000000    13.96400000
   C      7.37400000    51.60000000    13.42400000
   C      5.75400000    50.84000000    15.08400000
   C      7.17400000    52.91000000    13.86400000
   C      5.59400000    52.13000000    15.58400000
   C      6.18400000    53.17000000    14.82400000
   O      5.94400000    54.44000000    15.24400000
   H      4.09400000    48.03000000    13.84400000
   H      5.56400000    49.22000000    11.63400000
   H      7.58400000    49.02000000    12.97400000
   H      6.65400000    48.57000000    14.38400000
   H      8.12400000    51.37000000    12.67400000
   H      5.30400000    49.97000000    15.54400000
   H      7.73400000    53.78000000    13.55400000
   H      5.08400000    52.29000000    16.52400000
   H      6.56400000    55.12000000    14.97400000
   N      6.25400000    47.05000000    10.81400000
   C      6.59400000    45.79000000    10.18400000
   C      8.09400000    45.63000000    10.39400000
   O      8.84400000    46.44000000     9.85400000
   C      6.10400000    45.71000000     8.74400000
   C      4.58400000    45.85000000     8.69400000
   C      6.67400000    44.58000000     7.90400000
   C      4.07400000    46.12000000     7.28400000
   H      6.23400000    47.84000000    10.18400000
   H      5.98400000    45.01000000    10.64400000
   H      6.54400000    46.60000000     8.29400000
   H      4.22400000    46.66000000     9.32400000
   H      4.11400000    44.98000000     9.16400000
   H      6.44400000    44.58000000     6.83400000
   H      7.76400000    44.52000000     8.00400000
   H      6.27400000    43.68000000     8.37400000
   H      4.45400000    46.97000000     6.71400000
   H      4.49400000    45.27000000     6.73400000
   H      2.99400000    46.14000000     7.22400000
   N      8.50400000    44.54000000    11.04400000
   C      9.87400000    44.05000000    11.08400000
   C     10.15400000    43.22000000     9.84400000
   O      9.25400000    42.70000000     9.18400000
   C     10.12400000    43.31000000    12.38400000
   O      9.31400000    42.17000000    12.49400000
   H      7.85400000    43.97000000    11.56400000
   H     10.53400000    44.91000000    11.01400000
   H      9.97400000    43.98000000    13.23400000
   H     11.16400000    43.00000000    12.48400000
   H      8.46400000    42.58000000    12.68400000
   N     11.41400000    42.82000000     9.63400000
   C     11.84400000    41.91000000     8.59400000
   C     11.53400000    40.48000000     8.99400000
   O     11.29400000    39.67000000     8.09400000
   C     13.33400000    42.16000000     8.41400000
   H     12.15400000    43.38000000    10.03400000
   H     11.46400000    42.23000000     7.61400000
   H     13.64400000    41.67000000     7.48400000
   H     13.49400000    43.24000000     8.45400000
   H     13.97400000    41.73000000     9.18400000
   N     11.40400000    40.11000000    10.27400000
   C     10.78400000    38.87000000    10.69400000
   C      9.31400000    38.73000000    10.32400000
   O      8.80400000    37.74000000     9.79400000
   C     10.86400000    38.82000000    12.22400000
   H     11.84400000    40.72000000    10.94400000
   H     11.24400000    37.98000000    10.27400000
   H     10.45400000    37.87000000    12.56400000
   H     11.86400000    38.92000000    12.63400000
   H     10.19400000    39.59000000    12.61400000
   N      8.53400000    39.82000000    10.36400000
   C      7.12400000    39.88000000    10.01400000
   C      6.97400000    40.04000000     8.50400000
   O      6.19400000    39.27000000     7.95400000
   C      6.40400000    41.02000000    10.72400000
   C      6.35400000    40.86000000    12.24400000
   C      6.08400000    42.21000000    12.87400000
   O      4.93400000    42.55000000    13.24400000
   O      6.92400000    43.14000000    12.94400000
   H      8.93400000    40.71000000    10.60400000
   H      6.65400000    38.92000000    10.24400000
   H      5.36400000    41.09000000    10.43400000
   H      6.85400000    41.92000000    10.30400000
   H      7.30400000    40.47000000    12.59400000
   H      5.56400000    40.15000000    12.50400000
   N      7.93400000    40.63000000     7.79400000
   C      7.81400000    40.72000000     6.35400000
   H      7.29000000    41.63900000     6.09000000
   H      8.80800000    40.72800000     5.90600000
   H      7.25300000    39.86300000     5.98100000
   H      8.69400000    41.18000000     8.17400000
  Ca      5.70000000    44.57000000    14.75000000
   O      7.93000000    45.85000000    15.26000000
   H      8.52000000    46.28000000    14.64000000
   H      8.41000000    45.85000000    16.09000000
   O      6.52000000    44.91000000    17.38000000
   H      7.38000000    45.22000000    17.65000000
   H      6.14000000    44.52000000    18.16000000
   O      7.26000000    42.50000000    15.85000000
   H      6.66000000    42.26000000    16.55000000
   H      7.65000000    41.68000000    15.58000000

Ca 1.00



