%chk=loop3.apoCaM-CA-Ng.Init31.run98.water5.chk
%nprocshared=20
%mem=10GB
%nosave
#b3lyp/svp scf=(tight,noincore,xqc) Test 
#IOP(5/87=12) Density=Current Pop=(MK,readradii) iop(6/33=2) iop(6/42=6)

loop3.apoCaM-CA-Ng.Init31.run98.water5 

   0  1 
   C     67.33000000    62.51000000    43.54000000
   C     66.59000000    61.46000000    42.72000000
   O     66.62000000    60.26000000    42.97000000
   H     68.24800000    62.79200000    43.02500000
   H     66.69800000    63.39000000    43.66100000
   H     67.57500000    62.10000000    44.52000000
   N     65.89000000    61.83000000    41.64000000
   C     65.04000000    60.94000000    40.88000000
   C     65.84000000    60.44000000    39.68000000
   O     66.81000000    61.09000000    39.29000000
   C     63.82000000    61.78000000    40.51000000
   C     64.16000000    63.07000000    39.79000000
   O     63.96000000    63.19000000    38.56000000
   O     64.74000000    63.95000000    40.47000000
   H     65.84000000    62.83000000    41.50000000
   H     64.75000000    60.09000000    41.48000000
   H     63.21000000    62.01000000    41.39000000
   H     63.15000000    61.25000000    39.83000000
   N     65.54000000    59.27000000    39.11000000
   C     66.29000000    58.72000000    38.00000000
   C     67.74000000    58.46000000    38.37000000
   O     68.62000000    59.06000000    37.75000000
   C     65.62000000    57.53000000    37.31000000
   C     66.44000000    57.16000000    36.08000000
   C     65.66000000    56.05000000    35.39000000
   C     66.38000000    55.37000000    34.23000000
   N     65.47000000    54.52000000    33.46000000
   H     64.85000000    58.64000000    39.49000000
   H     66.36000000    59.47000000    37.21000000
   H     64.59000000    57.78000000    37.03000000
   H     65.64000000    56.65000000    37.95000000
   H     67.41000000    56.76000000    36.39000000
   H     66.71000000    58.00000000    35.45000000
   H     64.76000000    56.49000000    34.96000000
   H     65.36000000    55.32000000    36.15000000
   H     67.31000000    54.89000000    34.55000000
   H     66.76000000    56.15000000    33.57000000
   H     65.82000000    54.29000000    32.54000000
   H     65.37000000    53.66000000    33.98000000
   H     64.56000000    54.96000000    33.50000000
   N     67.93000000    57.58000000    39.35000000
   C     69.20000000    57.26000000    39.98000000
   C     69.56000000    55.97000000    39.26000000
   O     69.25000000    54.86000000    39.69000000
   C     69.03000000    57.22000000    41.50000000
   C     67.98000000    56.38000000    42.20000000
   O     67.77000000    56.38000000    43.43000000
   O     67.11000000    55.74000000    41.57000000
   H     67.21000000    57.03000000    39.80000000
   H     69.93000000    58.00000000    39.65000000
   H     68.77000000    58.24000000    41.78000000
   H     70.04000000    57.06000000    41.90000000
   N     70.12000000    56.12000000    38.06000000
   C     70.49000000    55.04000000    37.17000000
   C     69.37000000    54.41000000    36.35000000
   O     68.22000000    54.55000000    36.74000000
   H     70.17000000    57.07000000    37.71000000
   H     70.87000000    54.24000000    37.81000000
   H     71.21000000    55.43000000    36.45000000
   N     69.57000000    53.59000000    35.32000000
   C     70.77000000    53.07000000    34.69000000
   C     71.14000000    51.65000000    35.12000000
   O     70.29000000    50.82000000    35.43000000
   C     70.55000000    53.17000000    33.18000000
   C     69.53000000    52.20000000    32.61000000
   N     69.97000000    51.29000000    31.74000000
   O     68.33000000    52.31000000    32.86000000
   H     68.72000000    53.32000000    34.84000000
   H     71.56000000    53.77000000    34.95000000
   H     71.48000000    53.00000000    32.63000000
   H     70.26000000    54.22000000    33.08000000
   H     70.94000000    51.30000000    31.45000000
   H     69.24000000    50.80000000    31.24000000
   N     72.39000000    51.20000000    34.98000000
   C     73.57000000    51.98000000    34.66000000
   C     74.07000000    52.79000000    35.85000000
   O     73.57000000    53.88000000    36.15000000
   H     72.61000000    50.26000000    35.26000000
   H     73.26000000    52.68000000    33.89000000
   H     74.34000000    51.33000000    34.25000000
   N     75.21000000    52.33000000    36.37000000
   C     75.93000000    52.88000000    37.51000000
   C     77.38000000    53.04000000    37.08000000
   O     78.06000000    52.05000000    36.81000000
   C     75.73000000    51.91000000    38.67000000
   C     74.32000000    51.39000000    38.77000000
   C     73.40000000    52.24000000    39.40000000
   C     73.89000000    50.18000000    38.20000000
   C     72.07000000    51.87000000    39.59000000
   C     72.51000000    49.93000000    38.23000000
   C     71.58000000    50.79000000    38.83000000
   O     70.25000000    50.48000000    38.96000000
   H     75.63000000    51.47000000    36.05000000
   H     75.50000000    53.82000000    37.84000000
   H     75.85000000    52.44000000    39.62000000
   H     76.43000000    51.08000000    38.75000000
   H     73.76000000    53.11000000    39.92000000
   H     74.56000000    49.54000000    37.64000000
   H     71.30000000    52.46000000    40.08000000
   H     72.21000000    48.94000000    37.89000000
   H     69.96000000    49.76000000    38.39000000
   N     77.71000000    54.30000000    36.79000000
   C     78.92000000    54.64000000    36.07000000
   C     79.70000000    55.70000000    36.83000000
   O     80.88000000    55.88000000    36.52000000
   C     78.65000000    55.06000000    34.63000000
   C     78.26000000    53.84000000    33.79000000
   C     77.53000000    56.09000000    34.52000000
   C     79.36000000    52.82000000    33.57000000
   H     76.98000000    54.98000000    36.95000000
   H     79.57000000    53.77000000    36.04000000
   H     79.50000000    55.53000000    34.13000000
   H     78.02000000    54.25000000    32.81000000
   H     77.34000000    53.41000000    34.20000000
   H     77.88000000    57.03000000    34.94000000
   H     77.35000000    56.24000000    33.45000000
   H     76.64000000    55.83000000    35.09000000
   H     79.05000000    52.03000000    32.89000000
   H     80.24000000    53.38000000    33.24000000
   H     79.59000000    52.32000000    34.52000000
   N     78.99000000    56.54000000    37.58000000
   C     79.64000000    57.74000000    38.06000000
   C     78.91000000    59.05000000    37.85000000
   O     79.40000000    60.12000000    38.23000000
   C     80.12000000    57.59000000    39.50000000
   O     79.09000000    57.63000000    40.47000000
   H     77.98000000    56.44000000    37.62000000
   H     80.51000000    57.91000000    37.42000000
   H     80.87000000    58.36000000    39.68000000
   H     80.60000000    56.61000000    39.57000000
   H     78.29000000    57.23000000    40.11000000
   N     77.67000000    58.94000000    37.36000000
   C     76.73000000    60.00000000    37.05000000
   C     75.88000000    60.36000000    38.27000000
   O     74.66000000    60.21000000    38.31000000
   C     75.89000000    59.53000000    35.86000000
   H     77.34000000    58.00000000    37.24000000
   H     77.28000000    60.90000000    36.79000000
   H     76.53000000    59.24000000    35.02000000
   H     75.30000000    58.62000000    36.01000000
   H     75.23000000    60.30000000    35.49000000
   N     76.60000000    60.76000000    39.31000000
   C     76.21000000    61.10000000    40.66000000
   C     75.40000000    60.03000000    41.38000000
   O     74.90000000    60.23000000    42.48000000
   C     75.45000000    62.42000000    40.69000000
   H     77.58000000    60.97000000    39.14000000
   H     77.14000000    61.31000000    41.20000000
   H     74.79000000    62.46000000    39.82000000
   H     74.94000000    62.59000000    41.63000000
   H     76.09000000    63.28000000    40.49000000
   N     75.32000000    58.80000000    40.86000000
   C     74.46000000    57.76000000    41.38000000
   C     75.21000000    57.03000000    42.49000000
   O     74.68000000    56.93000000    43.59000000
   C     73.80000000    56.86000000    40.34000000
   C     74.64000000    55.83000000    39.58000000
   C     75.85000000    56.44000000    38.90000000
   O     76.82000000    56.90000000    39.53000000
   O     75.91000000    56.27000000    37.66000000
   H     75.81000000    58.68000000    39.98000000
   H     73.62000000    58.25000000    41.88000000
   H     73.38000000    57.61000000    39.66000000
   H     72.95000000    56.37000000    40.80000000
   H     73.91000000    55.38000000    38.90000000
   H     74.98000000    55.05000000    40.27000000
   N     76.39000000    56.43000000    42.30000000
   C     77.13000000    55.60000000    43.23000000
   H     78.04200000    56.11600000    43.53000000
   H     76.51800000    55.40500000    44.11000000
   H     77.38800000    54.65600000    42.75000000
   H     76.78000000    56.62000000    41.38000000
  Ca     66.06000000    54.53000000    43.75000000
   O     67.07000000    52.69000000    42.17000000
   H     66.50000000    51.93000000    42.33000000
   H     67.57000000    52.45000000    41.39000000
   O     64.38000000    53.92000000    41.78000000
   H     64.88000000    54.19000000    41.01000000
   H     63.47000000    54.08000000    41.54000000
   O     64.68000000    56.73000000    43.07000000
   H     63.74000000    56.88000000    43.18000000
   H     64.89000000    57.12000000    42.22000000
   O     65.40000000    52.06000000    44.41000000
   H     65.69000000    51.19000000    44.17000000
   H     64.49000000    51.94000000    44.70000000
   O     67.86000000    53.57000000    45.48000000
   H     67.74000000    52.72000000    45.90000000
   H     68.63000000    53.94000000    45.91000000

Ca 1.00



