%chk=loop2.apoCaM-CA-Ng.Init295.run7.water2.chk
%nprocshared=20
%mem=10GB
%nosave
#b3lyp/svp scf=(tight,noincore,xqc) Test 
#IOP(5/87=12) Density=Current Pop=(MK,readradii) iop(6/33=2) iop(6/42=6)

loop2.apoCaM-CA-Ng.Init295.run7.water2 

   -2  1 
   C     55.54000000    53.83000000    45.29000000
   C     55.20000000    54.63000000    44.03000000
   O     54.14000000    54.44000000    43.44000000
   H     56.38000000    54.29900000    45.80200000
   H     54.67600000    53.81200000    45.95400000
   H     55.80800000    52.81000000    45.01300000
   N     56.05000000    55.55000000    43.60000000
   C     55.84000000    56.49000000    42.52000000
   C     55.61000000    55.82000000    41.17000000
   O     55.11000000    56.44000000    40.24000000
   C     54.81000000    57.54000000    42.93000000
   C     55.02000000    58.89000000    42.27000000
   O     54.21000000    59.38000000    41.44000000
   O     56.08000000    59.48000000    42.58000000
   H     56.97000000    55.48000000    44.03000000
   H     56.83000000    56.96000000    42.52000000
   H     54.90000000    57.74000000    43.99000000
   H     53.81000000    57.16000000    42.69000000
   N     55.79000000    54.49000000    41.12000000
   C     55.34000000    53.63000000    40.05000000
   C     54.89000000    52.32000000    40.68000000
   O     55.38000000    51.89000000    41.72000000
   C     56.42000000    53.52000000    38.98000000
   H     56.10000000    53.95000000    41.91000000
   H     54.50000000    54.08000000    39.52000000
   H     56.42000000    54.41000000    38.34000000
   H     57.45000000    53.47000000    39.32000000
   H     56.29000000    52.65000000    38.33000000
   N     53.99000000    51.55000000    40.07000000
   C     53.20000000    51.85000000    38.90000000
   C     52.01000000    52.73000000    39.25000000
   O     51.77000000    53.09000000    40.40000000
   C     52.60000000    50.56000000    38.35000000
   C     51.82000000    49.71000000    39.34000000
   O     52.48000000    48.98000000    40.12000000
   O     50.59000000    49.83000000    39.48000000
   H     53.82000000    50.68000000    40.56000000
   H     53.81000000    52.32000000    38.13000000
   H     53.44000000    49.97000000    37.99000000
   H     52.05000000    50.75000000    37.42000000
   N     51.25000000    53.17000000    38.24000000
   C     50.06000000    53.96000000    38.48000000
   C     50.21000000    55.36000000    39.05000000
   O     50.99000000    56.09000000    38.45000000
   H     51.61000000    53.09000000    37.30000000
   H     49.43000000    53.34000000    39.12000000
   H     49.46000000    53.91000000    37.58000000
   N     49.57000000    55.83000000    40.13000000
   C     48.98000000    55.00000000    41.16000000
   C     49.35000000    55.55000000    42.53000000
   O     49.38000000    56.76000000    42.70000000
   C     47.45000000    55.07000000    41.11000000
   C     46.84000000    54.55000000    39.82000000
   N     46.87000000    53.26000000    39.46000000
   O     46.30000000    55.36000000    39.08000000
   H     49.60000000    56.83000000    40.29000000
   H     49.32000000    53.97000000    41.04000000
   H     47.04000000    56.05000000    41.36000000
   H     47.07000000    54.47000000    41.94000000
   H     47.19000000    52.63000000    40.18000000
   H     46.72000000    52.88000000    38.54000000
   N     49.43000000    54.82000000    43.64000000
   C     49.79000000    55.28000000    44.96000000
   C     49.97000000    54.30000000    46.11000000
   O     50.73000000    54.56000000    47.04000000
   H     49.49000000    53.81000000    43.53000000
   H     48.94000000    55.96000000    45.09000000
   H     50.70000000    55.88000000    44.89000000
   N     49.27000000    53.16000000    46.05000000
   C     49.40000000    52.13000000    47.05000000
   C     49.69000000    50.77000000    46.43000000
   O     49.51000000    50.49000000    45.25000000
   C     48.20000000    51.99000000    47.99000000
   C     48.10000000    53.22000000    48.88000000
   O     47.00000000    51.93000000    47.26000000
   H     48.60000000    53.11000000    45.30000000
   H     50.25000000    52.30000000    47.71000000
   H     48.35000000    51.09000000    48.59000000
   H     46.84000000    51.00000000    47.10000000
   H     47.18000000    53.09000000    49.44000000
   H     48.99000000    53.43000000    49.48000000
   H     47.88000000    54.08000000    48.24000000
   N     50.31000000    49.90000000    47.24000000
   C     50.87000000    48.64000000    46.80000000
   C     49.80000000    47.55000000    46.79000000
   O     48.76000000    47.72000000    47.41000000
   C     52.14000000    48.44000000    47.62000000
   C     53.29000000    49.35000000    47.22000000
   C     51.99000000    48.58000000    49.13000000
   C     54.72000000    49.13000000    47.72000000
   H     50.44000000    50.27000000    48.17000000
   H     51.17000000    48.71000000    45.76000000
   H     52.54000000    47.44000000    47.44000000
   H     53.04000000    50.37000000    47.51000000
   H     53.38000000    49.29000000    46.13000000
   H     52.08000000    49.62000000    49.46000000
   H     51.06000000    48.16000000    49.52000000
   H     52.79000000    48.05000000    49.64000000
   H     54.81000000    49.23000000    48.80000000
   H     55.10000000    48.15000000    47.41000000
   H     55.31000000    49.92000000    47.25000000
   N     50.03000000    46.42000000    46.12000000
   C     49.02000000    45.40000000    45.93000000
   C     49.78000000    44.08000000    45.87000000
   O     50.77000000    43.98000000    45.16000000
   C     48.16000000    45.73000000    44.71000000
   C     49.01000000    46.27000000    43.57000000
   O     49.04000000    47.51000000    43.44000000
   O     49.43000000    45.58000000    42.62000000
   H     50.81000000    46.48000000    45.49000000
   H     48.40000000    45.38000000    46.82000000
   H     47.40000000    46.44000000    45.04000000
   H     47.64000000    44.80000000    44.46000000
   N     49.35000000    43.05000000    46.60000000
   C     49.96000000    41.74000000    46.74000000
   C     51.40000000    41.68000000    47.21000000
   O     51.76000000    42.27000000    48.23000000
   C     49.02000000    40.93000000    47.62000000
   C     49.03000000    39.43000000    47.45000000
   C     49.69000000    38.60000000    48.36000000
   C     48.26000000    38.82000000    46.45000000
   C     49.62000000    37.20000000    48.25000000
   C     48.16000000    37.43000000    46.32000000
   C     48.92000000    36.64000000    47.18000000
   H     48.42000000    43.05000000    47.01000000
   H     49.95000000    41.26000000    45.76000000
   H     47.99000000    41.17000000    47.33000000
   H     49.16000000    41.19000000    48.67000000
   H     50.22000000    39.09000000    49.17000000
   H     47.67000000    39.43000000    45.78000000
   H     49.96000000    36.53000000    49.03000000
   H     47.45000000    37.12000000    45.56000000
   H     48.71000000    35.58000000    47.12000000
   N     52.34000000    41.18000000    46.41000000
   C     53.72000000    41.08000000    46.84000000
   C     54.48000000    42.38000000    46.62000000
   O     55.61000000    42.39000000    47.09000000
   C     54.22000000    39.91000000    46.00000000
   C     53.51000000    39.94000000    44.65000000
   C     52.17000000    40.50000000    45.13000000
   H     53.76000000    40.91000000    47.92000000
   H     55.29000000    39.94000000    45.78000000
   H     53.97000000    39.01000000    46.56000000
   H     53.90000000    40.74000000    44.02000000
   H     53.41000000    39.01000000    44.10000000
   H     51.83000000    41.11000000    44.30000000
   H     51.49000000    39.66000000    45.25000000
   N     53.97000000    43.46000000    46.02000000
   C     54.69000000    44.71000000    45.90000000
   C     55.08000000    45.31000000    47.24000000
   O     56.07000000    46.04000000    47.25000000
   C     53.80000000    45.69000000    45.14000000
   C     53.49000000    45.26000000    43.71000000
   C     52.71000000    46.27000000    42.87000000
   O     52.12000000    47.26000000    43.36000000
   O     52.64000000    45.99000000    41.66000000
   H     53.00000000    43.43000000    45.75000000
   H     55.62000000    44.48000000    45.37000000
   H     54.30000000    46.65000000    45.08000000
   H     52.86000000    45.82000000    45.68000000
   H     53.03000000    44.27000000    43.65000000
   H     54.43000000    45.18000000    43.15000000
   N     54.57000000    44.97000000    48.43000000
   C     55.01000000    45.52000000    49.70000000
   H     55.87900000    46.15700000    49.53800000
   H     54.20500000    46.10900000    50.14000000
   H     55.27700000    44.70700000    50.37600000
   H     53.78000000    44.34000000    48.49000000
  Ca     50.42000000    47.86000000    41.30000000
   O     50.68000000    50.10000000    42.69000000
   H     50.69000000    50.01000000    43.64000000
   H     50.88000000    51.02000000    42.53000000
   O     50.92000000    46.83000000    38.94000000
   H     51.68000000    46.42000000    38.54000000
   H     50.57000000    47.41000000    38.27000000

Ca 1.00



