%chk=loop1.holoCaM-CaMKII.run73.water2.chk
%nprocshared=20
%mem=10GB
%nosave
#b3lyp/svp scf=(tight,noincore,xqc) Test 
#IOP(5/87=12) Density=Current Pop=(MK,readradii) iop(6/33=2) iop(6/42=6)

loop1.holoCaM-CaMKII.run73.water2 

   0  1 
   C     21.41000000    50.10000000   102.80900000
   C     21.80000000    51.54000000   102.48900000
   O     21.26000000    51.99000000   101.47900000
   H     20.43600000    49.88200000   102.37000000
   H     22.15500000    49.42100000   102.39500000
   H     21.35800000    49.96900000   103.89000000
   N     22.74000000    52.16000000   103.20900000
   C     23.31000000    53.44000000   102.83900000
   C     24.16000000    53.49000000   101.57900000
   O     25.39000000    53.59000000   101.63900000
   C     24.01000000    54.04000000   104.04900000
   C     24.50000000    55.46000000   103.79900000
   O     25.35000000    55.89000000   104.60900000
   O     24.04000000    56.19000000   102.89900000
   H     23.29000000    51.65000000   103.88900000
   H     22.49000000    54.09000000   102.51900000
   H     24.82000000    53.37000000   104.32900000
   H     23.22000000    54.17000000   104.78900000
   N     23.55000000    53.37000000   100.39900000
   C     24.21000000    53.20000000    99.11900000
   C     24.85000000    54.43000000    98.50900000
   O     25.61000000    54.36000000    97.53900000
   C     23.35000000    52.45000000    98.09900000
   C     23.69000000    50.97000000    98.05900000
   C     24.92000000    50.46000000    97.30900000
   C     25.40000000    49.17000000    97.95900000
   N     26.57000000    48.67000000    97.21900000
   H     22.55000000    53.33000000   100.47900000
   H     25.07000000    52.54000000    99.17900000
   H     23.47000000    52.82000000    97.07900000
   H     22.32000000    52.57000000    98.41900000
   H     22.91000000    50.31000000    97.65900000
   H     23.81000000    50.72000000    99.10900000
   H     25.69000000    51.22000000    97.40900000
   H     24.75000000    50.32000000    96.23900000
   H     24.59000000    48.46000000    97.78900000
   H     25.67000000    49.39000000    98.98900000
   H     27.31000000    49.35000000    97.29900000
   H     26.95000000    47.84000000    97.62900000
   H     26.42000000    48.52000000    96.22900000
   N     24.57000000    55.66000000    98.93900000
   C     25.30000000    56.87000000    98.59900000
   C     26.25000000    57.37000000    99.67900000
   O     27.05000000    58.26000000    99.39900000
   C     24.35000000    57.97000000    98.13900000
   C     23.28000000    58.40000000    99.12900000
   O     23.31000000    58.02000000   100.32900000
   O     22.49000000    59.28000000    98.72900000
   H     24.01000000    55.78000000    99.76900000
   H     25.92000000    56.66000000    97.72900000
   H     23.82000000    57.68000000    97.23900000
   H     24.93000000    58.85000000    97.84900000
   N     26.35000000    56.73000000   100.83900000
   C     27.30000000    56.87000000   101.91900000
   C     27.38000000    58.20000000   102.65900000
   O     28.38000000    58.91000000   102.64900000
   H     25.72000000    55.97000000   101.03900000
   H     28.30000000    56.67000000   101.51900000
   H     26.95000000    56.20000000   102.70900000
   N     26.44000000    58.48000000   103.55900000
   C     26.21000000    59.70000000   104.30900000
   C     25.99000000    59.44000000   105.78900000
   O     25.84000000    60.43000000   106.50900000
   C     25.10000000    60.56000000   103.70900000
   C     23.76000000    59.84000000   103.59900000
   O     22.97000000    60.17000000   102.68900000
   O     23.39000000    58.97000000   104.41900000
   H     25.85000000    57.66000000   103.67900000
   H     27.10000000    60.30000000   104.13900000
   H     25.40000000    60.93000000   102.72900000
   H     25.04000000    61.49000000   104.27900000
   N     25.82000000    58.21000000   106.27900000
   C     25.45000000    57.92000000   107.64900000
   C     23.95000000    57.94000000   107.92900000
   O     23.60000000    58.24000000   109.06900000
   H     25.82000000    57.46000000   105.60900000
   H     25.88000000    58.69000000   108.28900000
   H     25.85000000    56.97000000   107.97900000
   N     23.08000000    57.60000000   106.97900000
   C     21.64000000    57.62000000   107.10900000
   C     21.02000000    56.85000000   105.94900000
   O     21.36000000    57.05000000   104.78900000
   C     21.07000000    59.04000000   107.06900000
   C     20.83000000    59.74000000   108.40900000
   O     21.96000000    59.86000000   106.34900000
   H     23.45000000    57.46000000   106.04900000
   H     21.33000000    57.17000000   108.04900000
   H     20.11000000    59.03000000   106.55900000
   H     22.39000000    59.38000000   105.64900000
   H     20.13000000    60.55000000   108.21900000
   H     20.21000000    59.11000000   109.05900000
   H     21.75000000    60.10000000   108.84900000
   N     19.93000000    56.13000000   106.21900000
   C     19.12000000    55.37000000   105.28900000
   C     17.79000000    56.08000000   105.11900000
   O     17.20000000    56.55000000   106.08900000
   C     19.01000000    53.90000000   105.68900000
   C     20.36000000    53.24000000   105.97900000
   C     18.13000000    53.07000000   104.75900000
   C     20.27000000    52.16000000   107.04900000
   H     19.51000000    56.30000000   107.12900000
   H     19.57000000    55.48000000   104.30900000
   H     18.50000000    53.95000000   106.64900000
   H     21.10000000    53.97000000   106.31900000
   H     20.72000000    52.81000000   105.04900000
   H     18.22000000    52.01000000   104.99900000
   H     17.08000000    53.29000000   104.95900000
   H     18.42000000    53.13000000   103.71900000
   H     19.56000000    51.41000000   106.69900000
   H     21.22000000    51.69000000   107.31900000
   H     19.95000000    52.67000000   107.95900000
   N     17.31000000    56.14000000   103.86900000
   C     16.01000000    56.56000000   103.37900000
   C     14.99000000    55.47000000   103.09900000
   O     15.37000000    54.30000000   103.02900000
   C     16.06000000    57.42000000   102.10900000
   C     16.91000000    58.66000000   102.35900000
   O     16.55000000    56.64000000   101.04900000
   H     17.89000000    55.79000000   103.12900000
   H     15.51000000    57.12000000   104.15900000
   H     15.07000000    57.83000000   101.88900000
   H     16.96000000    57.22000000   100.39900000
   H     16.39000000    59.25000000   103.10900000
   H     17.97000000    58.43000000   102.50900000
   H     16.91000000    59.24000000   101.44900000
   N     13.72000000    55.78000000   102.81900000
   C     12.79000000    54.71000000   102.51900000
   C     13.16000000    54.07000000   101.18900000
   O     13.09000000    52.85000000   101.04900000
   C     11.31000000    55.07000000   102.37900000
   C     10.51000000    55.29000000   103.65900000
   O     11.14000000    56.16000000   101.49900000
   H     13.42000000    56.74000000   102.94900000
   H     12.80000000    53.96000000   103.30900000
   H     10.80000000    54.24000000   101.88900000
   H     10.43000000    56.74000000   101.77900000
   H     10.74000000    56.30000000   104.01900000
   H      9.43000000    55.37000000   103.50900000
   H     10.73000000    54.54000000   104.40900000
   N     13.50000000    54.81000000   100.13900000
   C     13.91000000    54.30000000    98.83900000
   C     15.19000000    53.48000000    98.93900000
   O     15.22000000    52.44000000    98.27900000
   C     14.03000000    55.49000000    97.89900000
   C     14.62000000    55.21000000    96.51900000
   C     14.67000000    56.50000000    95.68900000
   C     15.54000000    56.42000000    94.43900000
   N     15.55000000    57.74000000    93.78900000
   H     13.60000000    55.77000000   100.40900000
   H     13.12000000    53.66000000    98.44900000
   H     14.71000000    56.23000000    98.32900000
   H     13.06000000    55.97000000    97.75900000
   H     14.03000000    54.57000000    95.87900000
   H     15.66000000    54.89000000    96.58900000
   H     14.93000000    57.39000000    96.25900000
   H     13.64000000    56.71000000    95.37900000
   H     15.09000000    55.69000000    93.76900000
   H     16.55000000    56.13000000    94.73900000
   H     16.05000000    58.46000000    94.27900000
   H     16.00000000    57.71000000    92.87900000
   H     14.64000000    58.05000000    93.48900000
   N     16.21000000    53.95000000    99.66900000
   C     17.31000000    53.11000000   100.09900000
   C     16.89000000    51.77000000   100.68900000
   O     17.30000000    50.69000000   100.27900000
   C     18.32000000    53.85000000   100.96900000
   C     19.06000000    54.85000000   100.08900000
   C     20.19000000    55.46000000   100.90900000
   O     21.31000000    55.65000000   100.38900000
   O     20.03000000    55.95000000   102.04900000
   H     16.07000000    54.78000000   100.22900000
   H     17.91000000    52.79000000    99.24900000
   H     19.07000000    53.12000000   101.26900000
   H     17.82000000    54.34000000   101.80900000
   H     18.49000000    55.69000000    99.68900000
   H     19.38000000    54.30000000    99.19900000
   N     16.05000000    51.78000000   101.72900000
   C     15.62000000    50.60000000   102.45900000
   H     14.62200000    50.31300000   102.12800000
   H     16.31500000    49.78200000   102.26900000
   H     15.59900000    50.82000000   103.52600000
   H     15.95000000    52.70000000   102.11900000
  Ca     21.99000000    57.62000000   102.37900000
   O     20.42000000    58.78000000   100.46900000
   H     21.09000000    58.64000000    99.79900000
   H     20.17000000    59.70000000   100.38900000
   O     19.96000000    59.74000000   103.17900000
   H     19.83000000    60.24000000   102.36900000
   H     19.32000000    60.11000000   103.78900000

Ca 1.00



