%chk=loop3.apoCaM-CA-Ng.Init293.run21.water4.chk
%nprocshared=20
%mem=10GB
%nosave
#b3lyp/svp scf=(tight,noincore,xqc) Test 
#IOP(5/87=12) Density=Current Pop=(MK,readradii) iop(6/33=2) iop(6/42=6)

loop3.apoCaM-CA-Ng.Init293.run21.water4 

   0  1 
   C     56.24000000    21.89000000     7.52000000
   C     56.25000000    22.75000000     6.27000000
   O     55.77000000    22.25000000     5.26000000
   H     55.58700000    22.34200000     8.26600000
   H     55.87400000    20.89300000     7.27300000
   H     57.25100000    21.81700000     7.92000000
   N     56.95000000    23.89000000     6.25000000
   C     57.03000000    24.73000000     5.07000000
   C     55.77000000    25.53000000     4.74000000
   O     54.87000000    25.72000000     5.55000000
   C     58.37000000    25.46000000     4.99000000
   C     58.49000000    26.36000000     6.21000000
   O     58.39000000    25.82000000     7.33000000
   O     58.43000000    27.60000000     6.08000000
   H     57.47000000    24.17000000     7.06000000
   H     57.13000000    24.04000000     4.23000000
   H     58.49000000    25.94000000     4.02000000
   H     59.14000000    24.70000000     5.10000000
   N     55.74000000    26.03000000     3.51000000
   C     54.65000000    26.74000000     2.86000000
   C     54.14000000    28.09000000     3.34000000
   O     54.01000000    29.03000000     2.55000000
   C     53.40000000    25.85000000     2.81000000
   C     53.63000000    24.45000000     2.25000000
   C     52.38000000    23.59000000     2.12000000
   C     52.56000000    22.37000000     1.22000000
   N     51.37000000    21.51000000     1.35000000
   H     56.51000000    25.90000000     2.88000000
   H     55.01000000    26.86000000     1.84000000
   H     52.67000000    26.44000000     2.26000000
   H     53.01000000    25.79000000     3.83000000
   H     54.11000000    23.89000000     3.06000000
   H     54.28000000    24.60000000     1.39000000
   H     51.57000000    24.19000000     1.69000000
   H     52.16000000    23.33000000     3.16000000
   H     53.51000000    21.89000000     1.43000000
   H     52.79000000    22.64000000     0.19000000
   H     51.60000000    20.61000000     0.95000000
   H     51.11000000    21.35000000     2.31000000
   H     50.61000000    21.88000000     0.81000000
   N     53.98000000    28.21000000     4.66000000
   C     53.48000000    29.36000000     5.38000000
   C     54.14000000    29.55000000     6.73000000
   O     54.30000000    28.54000000     7.41000000
   C     51.97000000    29.16000000     5.55000000
   C     51.42000000    30.31000000     6.39000000
   O     51.77000000    31.44000000     6.00000000
   O     50.64000000    30.15000000     7.35000000
   H     54.31000000    27.42000000     5.19000000
   H     53.63000000    30.31000000     4.86000000
   H     51.72000000    28.20000000     5.99000000
   H     51.46000000    29.22000000     4.59000000
   N     54.50000000    30.79000000     7.10000000
   C     55.05000000    31.16000000     8.39000000
   C     54.10000000    30.90000000     9.55000000
   O     52.92000000    30.62000000     9.36000000
   H     54.23000000    31.50000000     6.43000000
   H     55.32000000    32.21000000     8.25000000
   H     55.97000000    30.60000000     8.59000000
   N     54.71000000    31.00000000    10.73000000
   C     54.04000000    31.09000000    12.01000000
   C     54.51000000    32.12000000    13.02000000
   O     54.03000000    32.17000000    14.15000000
   C     54.30000000    29.75000000    12.69000000
   C     53.58000000    28.64000000    11.94000000
   N     54.23000000    27.51000000    11.64000000
   O     52.37000000    28.72000000    11.70000000
   H     55.72000000    31.02000000    10.73000000
   H     52.95000000    31.13000000    11.96000000
   H     53.97000000    29.76000000    13.73000000
   H     55.36000000    29.55000000    12.58000000
   H     55.22000000    27.44000000    11.81000000
   H     53.75000000    26.79000000    11.13000000
   N     55.38000000    33.08000000    12.68000000
   C     55.68000000    34.30000000    13.40000000
   C     56.32000000    34.08000000    14.76000000
   O     57.19000000    33.22000000    14.84000000
   H     55.69000000    32.92000000    11.73000000
   H     54.69000000    34.71000000    13.61000000
   H     56.20000000    35.10000000    12.87000000
   N     56.01000000    34.98000000    15.70000000
   C     56.52000000    34.92000000    17.06000000
   C     56.27000000    33.63000000    17.83000000
   O     56.45000000    33.68000000    19.04000000
   C     57.98000000    35.36000000    17.01000000
   C     58.67000000    35.45000000    18.35000000
   C     58.13000000    36.11000000    19.46000000
   C     59.97000000    34.96000000    18.48000000
   C     58.83000000    36.28000000    20.66000000
   C     60.62000000    34.94000000    19.71000000
   C     60.07000000    35.61000000    20.82000000
   O     60.81000000    35.80000000    21.94000000
   H     55.33000000    35.67000000    15.43000000
   H     55.97000000    35.67000000    17.64000000
   H     58.14000000    36.35000000    16.57000000
   H     58.47000000    34.60000000    16.40000000
   H     57.18000000    36.59000000    19.29000000
   H     60.47000000    34.51000000    17.63000000
   H     58.43000000    36.84000000    21.49000000
   H     61.61000000    34.50000000    19.80000000
   H     61.62000000    35.29000000    21.92000000
   N     55.82000000    32.55000000    17.20000000
   C     55.24000000    31.34000000    17.74000000
   C     53.96000000    31.54000000    18.54000000
   O     52.94000000    30.97000000    18.15000000
   C     56.26000000    30.39000000    18.37000000
   C     57.47000000    30.07000000    17.50000000
   C     55.46000000    29.12000000    18.64000000
   C     58.65000000    29.37000000    18.17000000
   H     55.76000000    32.61000000    16.19000000
   H     54.83000000    30.88000000    16.84000000
   H     56.59000000    30.90000000    19.27000000
   H     57.79000000    31.00000000    17.04000000
   H     57.23000000    29.45000000    16.63000000
   H     56.14000000    28.36000000    19.03000000
   H     54.77000000    29.24000000    19.47000000
   H     54.87000000    28.82000000    17.78000000
   H     59.30000000    30.10000000    18.67000000
   H     58.29000000    28.67000000    18.93000000
   H     59.29000000    28.92000000    17.42000000
   N     53.89000000    32.38000000    19.58000000
   C     52.74000000    32.89000000    20.28000000
   C     51.88000000    31.91000000    21.07000000
   O     50.83000000    32.41000000    21.44000000
   C     53.15000000    34.00000000    21.25000000
   O     53.99000000    34.97000000    20.66000000
   H     54.74000000    32.74000000    20.00000000
   H     52.04000000    33.29000000    19.54000000
   H     53.57000000    33.54000000    22.14000000
   H     52.24000000    34.52000000    21.53000000
   H     54.54000000    35.28000000    21.39000000
   N     52.23000000    30.63000000    21.21000000
   C     51.25000000    29.64000000    21.61000000
   C     50.07000000    29.65000000    20.64000000
   O     48.98000000    29.27000000    21.07000000
   C     51.14000000    29.66000000    23.13000000
   H     53.20000000    30.44000000    21.01000000
   H     51.80000000    28.71000000    21.45000000
   H     52.11000000    29.93000000    23.53000000
   H     50.38000000    30.44000000    23.23000000
   H     50.93000000    28.68000000    23.55000000
   N     50.26000000    30.07000000    19.39000000
   C     49.38000000    29.94000000    18.25000000
   C     49.60000000    28.63000000    17.52000000
   O     50.55000000    27.87000000    17.73000000
   C     49.51000000    31.13000000    17.31000000
   H     51.22000000    30.31000000    19.17000000
   H     48.36000000    29.91000000    18.65000000
   H     50.56000000    31.32000000    17.12000000
   H     48.95000000    31.09000000    16.37000000
   H     49.24000000    32.07000000    17.78000000
   N     48.59000000    28.36000000    16.68000000
   C     48.40000000    27.23000000    15.80000000
   C     48.63000000    25.85000000    16.40000000
   O     49.25000000    24.97000000    15.81000000
   C     49.28000000    27.52000000    14.58000000
   C     48.76000000    28.72000000    13.80000000
   C     49.35000000    28.89000000    12.41000000
   O     49.85000000    29.99000000    12.07000000
   O     49.38000000    27.98000000    11.55000000
   H     47.86000000    29.07000000    16.74000000
   H     47.33000000    27.25000000    15.60000000
   H     49.06000000    26.68000000    13.92000000
   H     50.31000000    27.75000000    14.85000000
   H     48.97000000    29.63000000    14.37000000
   H     47.68000000    28.70000000    13.71000000
   N     48.15000000    25.64000000    17.62000000
   C     48.60000000    24.60000000    18.53000000
   H     49.50200000    24.93300000    19.04400000
   H     47.82000000    24.39500000    19.26300000
   H     48.81700000    23.69200000    17.96700000
   H     47.59000000    26.38000000    18.01000000
  Ca     50.75000000    29.33000000     9.66000000
   O     50.45000000    31.99000000     9.94000000
   H     50.63000000    32.42000000     9.11000000
   H     50.85000000    32.55000000    10.60000000
   O     49.21000000    27.17000000     8.67000000
   H     48.88000000    26.63000000     9.39000000
   H     49.26000000    26.57000000     7.93000000
   O     52.39000000    27.44000000     8.80000000
   H     53.23000000    27.77000000     8.48000000
   H     52.19000000    26.69000000     8.24000000
   O     48.11000000    29.82000000     9.47000000
   H     47.74000000    30.66000000     9.20000000
   H     47.53000000    29.51000000    10.16000000

Ca 1.00



