%chk=loop3.apoCaM-CA-Ng.Init295.run90.water5.chk
%nprocshared=20
%mem=10GB
%nosave
#b3lyp/svp scf=(tight,noincore,xqc) Test 
#IOP(5/87=12) Density=Current Pop=(MK,readradii) iop(6/33=2) iop(6/42=6)

loop3.apoCaM-CA-Ng.Init295.run90.water5 

   0  1 
   C     -5.45000000   -19.18000000    65.14000000
   C     -6.42000000   -19.33000000    63.98000000
   O     -6.69000000   -18.25000000    63.44000000
   H     -4.57600000   -18.61700000    64.81200000
   H     -5.93900000   -18.64900000    65.95700000
   H     -5.13800000   -20.16600000    65.48300000
   N     -6.66000000   -20.51000000    63.42000000
   C     -7.46000000   -20.62000000    62.22000000
   C     -8.91000000   -20.91000000    62.59000000
   O     -9.21000000   -21.82000000    63.36000000
   C     -6.87000000   -21.69000000    61.30000000
   C     -7.55000000   -21.81000000    59.94000000
   O     -6.82000000   -21.76000000    58.92000000
   O     -8.78000000   -22.02000000    59.88000000
   H     -6.21000000   -21.36000000    63.75000000
   H     -7.38000000   -19.69000000    61.64000000
   H     -6.83000000   -22.64000000    61.82000000
   H     -5.83000000   -21.41000000    61.17000000
   N     -9.84000000   -20.16000000    62.01000000
   C    -11.27000000   -20.15000000    62.29000000
   C    -12.15000000   -21.24000000    61.68000000
   O    -13.33000000   -21.32000000    62.02000000
   C    -11.84000000   -18.76000000    62.05000000
   C    -11.37000000   -17.76000000    63.10000000
   C    -11.78000000   -16.36000000    62.64000000
   C    -11.47000000   -15.35000000    63.75000000
   N    -11.75000000   -13.95000000    63.43000000
   H     -9.58000000   -19.60000000    61.21000000
   H    -11.41000000   -20.31000000    63.35000000
   H    -12.92000000   -18.86000000    62.09000000
   H    -11.53000000   -18.35000000    61.09000000
   H    -10.31000000   -17.77000000    63.35000000
   H    -11.79000000   -18.01000000    64.07000000
   H    -12.84000000   -16.28000000    62.42000000
   H    -11.15000000   -16.08000000    61.80000000
   H    -10.43000000   -15.54000000    64.02000000
   H    -11.97000000   -15.56000000    64.70000000
   H    -12.63000000   -13.90000000    62.93000000
   H    -11.78000000   -13.27000000    64.18000000
   H    -11.01000000   -13.66000000    62.81000000
   N    -11.51000000   -22.20000000    61.01000000
   C    -12.16000000   -23.43000000    60.58000000
   C    -11.37000000   -24.68000000    60.92000000
   O    -11.87000000   -25.80000000    60.98000000
   C    -12.58000000   -23.45000000    59.11000000
   C    -11.42000000   -23.04000000    58.21000000
   O    -11.46000000   -21.86000000    57.78000000
   O    -10.41000000   -23.76000000    58.09000000
   H    -10.61000000   -22.07000000    60.58000000
   H    -13.06000000   -23.53000000    61.18000000
   H    -13.44000000   -22.79000000    59.00000000
   H    -12.97000000   -24.43000000    58.84000000
   N    -10.10000000   -24.48000000    61.28000000
   C     -9.10000000   -25.50000000    61.49000000
   C     -8.72000000   -26.30000000    60.25000000
   O     -8.38000000   -27.47000000    60.34000000
   H     -9.75000000   -23.53000000    61.24000000
   H     -9.39000000   -26.17000000    62.30000000
   H     -8.19000000   -24.99000000    61.82000000
   N     -8.72000000   -25.67000000    59.07000000
   C     -8.33000000   -26.29000000    57.82000000
   C     -7.81000000   -25.28000000    56.81000000
   O     -7.93000000   -24.06000000    56.94000000
   C     -9.58000000   -27.05000000    57.40000000
   C    -10.21000000   -26.90000000    56.02000000
   N    -10.58000000   -25.68000000    55.65000000
   O    -10.20000000   -27.77000000    55.14000000
   H     -9.11000000   -24.74000000    58.97000000
   H     -7.53000000   -27.04000000    57.89000000
   H    -10.41000000   -26.89000000    58.09000000
   H     -9.31000000   -28.11000000    57.44000000
   H    -10.55000000   -24.97000000    56.37000000
   H    -10.83000000   -25.38000000    54.72000000
   N     -7.25000000   -25.82000000    55.73000000
   C     -6.90000000   -25.07000000    54.54000000
   C     -6.10000000   -25.85000000    53.51000000
   O     -5.13000000   -26.54000000    53.84000000
   H     -7.15000000   -26.83000000    55.68000000
   H     -6.31000000   -24.19000000    54.79000000
   H     -7.88000000   -24.77000000    54.16000000
   N     -6.65000000   -25.82000000    52.30000000
   C     -6.44000000   -26.85000000    51.30000000
   C     -6.04000000   -26.30000000    49.94000000
   O     -6.67000000   -25.36000000    49.46000000
   C     -7.61000000   -27.83000000    51.28000000
   C     -7.33000000   -29.09000000    50.49000000
   C     -8.06000000   -29.33000000    49.32000000
   C     -6.57000000   -30.07000000    51.13000000
   C     -7.86000000   -30.56000000    48.69000000
   C     -6.25000000   -31.24000000    50.43000000
   C     -6.95000000   -31.49000000    49.23000000
   O     -6.90000000   -32.71000000    48.63000000
   H     -7.37000000   -25.14000000    52.12000000
   H     -5.56000000   -27.38000000    51.68000000
   H     -8.36000000   -27.28000000    50.71000000
   H     -7.81000000   -27.97000000    52.34000000
   H     -8.68000000   -28.52000000    48.97000000
   H     -6.04000000   -29.81000000    52.04000000
   H     -8.35000000   -30.85000000    47.77000000
   H     -5.45000000   -31.91000000    50.73000000
   H     -6.31000000   -33.31000000    49.09000000
   N     -4.92000000   -26.78000000    49.39000000
   C     -4.14000000   -26.31000000    48.26000000
   C     -4.92000000   -26.26000000    46.96000000
   O     -6.12000000   -26.55000000    47.01000000
   C     -3.41000000   -25.01000000    48.61000000
   C     -2.59000000   -25.05000000    49.89000000
   C     -4.34000000   -23.80000000    48.64000000
   C     -1.48000000   -26.09000000    49.78000000
   H     -4.49000000   -27.57000000    49.84000000
   H     -3.41000000   -27.12000000    48.13000000
   H     -2.75000000   -24.87000000    47.76000000
   H     -3.26000000   -25.18000000    50.74000000
   H     -2.16000000   -24.07000000    50.09000000
   H     -3.74000000   -22.89000000    48.59000000
   H     -5.11000000   -23.78000000    47.87000000
   H     -4.82000000   -23.67000000    49.61000000
   H     -0.84000000   -25.90000000    48.92000000
   H     -0.83000000   -26.03000000    50.66000000
   H     -1.82000000   -27.12000000    49.70000000
   N     -4.32000000   -25.96000000    45.81000000
   C     -4.88000000   -25.81000000    44.48000000
   C     -4.33000000   -26.71000000    43.38000000
   O     -5.04000000   -27.11000000    42.46000000
   C     -4.64000000   -24.36000000    44.07000000
   O     -3.28000000   -24.03000000    44.15000000
   H     -3.33000000   -25.76000000    45.90000000
   H     -5.95000000   -25.98000000    44.54000000
   H     -5.27000000   -23.70000000    44.69000000
   H     -4.87000000   -24.22000000    43.02000000
   H     -3.18000000   -23.09000000    43.96000000
   N     -3.05000000   -27.05000000    43.48000000
   C     -2.27000000   -27.92000000    42.63000000
   C     -2.46000000   -27.81000000    41.12000000
   O     -2.84000000   -28.73000000    40.41000000
   C     -2.35000000   -29.35000000    43.18000000
   H     -2.64000000   -26.87000000    44.39000000
   H     -1.23000000   -27.63000000    42.80000000
   H     -3.37000000   -29.74000000    43.08000000
   H     -1.67000000   -29.98000000    42.61000000
   H     -2.32000000   -29.32000000    44.27000000
   N     -2.15000000   -26.68000000    40.48000000
   C     -1.56000000   -25.44000000    40.95000000
   C     -0.14000000   -25.18000000    40.49000000
   O      0.26000000   -25.53000000    39.38000000
   C     -2.54000000   -24.32000000    40.61000000
   H     -2.20000000   -26.70000000    39.47000000
   H     -1.59000000   -25.50000000    42.04000000
   H     -3.57000000   -24.48000000    40.93000000
   H     -2.21000000   -23.48000000    41.21000000
   H     -2.47000000   -24.10000000    39.54000000
   N      0.67000000   -24.47000000    41.28000000
   C      0.53000000   -24.10000000    42.67000000
   C      1.20000000   -25.13000000    43.56000000
   O      0.71000000   -25.48000000    44.64000000
   C      1.09000000   -22.69000000    42.91000000
   C      0.32000000   -21.50000000    42.35000000
   C      0.94000000   -20.15000000    42.68000000
   O      0.68000000   -19.67000000    43.80000000
   O      1.71000000   -19.57000000    41.87000000
   H      1.57000000   -24.24000000    40.88000000
   H     -0.49000000   -23.96000000    43.02000000
   H      2.13000000   -22.55000000    42.63000000
   H      0.96000000   -22.50000000    43.98000000
   H     -0.75000000   -21.59000000    42.54000000
   H      0.38000000   -21.70000000    41.28000000
   N      2.23000000   -25.80000000    43.03000000
   C      3.01000000   -26.72000000    43.84000000
   H      3.92400000   -26.22700000    44.17100000
   H      2.42700000   -27.02400000    44.70900000
   H      3.26600000   -27.59900000    43.24800000
   H      2.51000000   -25.46000000    42.12000000
  Ca     -8.82600000   -21.52600000    57.21000000
   O     -6.92600000   -21.17600000    55.20000000
   H     -6.03600000   -21.52600000    55.20000000
   H     -6.84600000   -20.29600000    54.83000000
   O     -9.36600000   -19.17600000    59.22000000
   H     -8.66600000   -18.83600000    58.68000000
   H    -10.00600000   -18.46600000    59.27000000
   O    -10.22600000   -19.51600000    56.23000000
   H    -11.10600000   -19.89600000    56.22000000
   H    -10.33600000   -18.64600000    55.83000000
   O     -9.55600000   -22.41600000    54.74000000
   H     -9.88600000   -23.24600000    54.40000000
   H     -9.28600000   -21.92600000    53.96000000
   O     -7.48600000   -18.84600000    57.48000000
   H     -7.88600000   -18.00600000    57.27000000
   H     -6.57600000   -18.63600000    57.66000000

Ca 1.00



