%chk=loop3.apoCaM-CA-Ng.Init293.run85.water5.chk
%nprocshared=20
%mem=10GB
%nosave
#b3lyp/svp scf=(tight,noincore,xqc) Test 
#IOP(5/87=12) Density=Current Pop=(MK,readradii) iop(6/33=2) iop(6/42=6)

loop3.apoCaM-CA-Ng.Init293.run85.water5 

   0  1 
   C     61.29000000    75.56000000    21.94000000
   C     62.19000000    74.34000000    21.99000000
   O     62.96000000    74.11000000    21.05000000
   H     60.36000000    75.34600000    22.46700000
   H     61.79200000    76.40200000    22.41700000
   H     61.07000000    75.80800000    20.90200000
   N     61.92000000    73.41000000    22.91000000
   C     62.54000000    72.11000000    23.08000000
   C     62.64000000    71.85000000    24.58000000
   O     61.84000000    72.31000000    25.39000000
   C     61.62000000    71.05000000    22.47000000
   C     62.30000000    69.69000000    22.30000000
   O     63.52000000    69.71000000    22.05000000
   O     61.67000000    68.63000000    22.50000000
   H     61.22000000    73.69000000    23.58000000
   H     63.50000000    72.20000000    22.57000000
   H     61.35000000    71.27000000    21.44000000
   H     60.69000000    71.04000000    23.03000000
   N     63.47000000    70.86000000    24.92000000
   C     63.22000000    70.04000000    26.09000000
   C     61.92000000    69.25000000    26.00000000
   O     60.99000000    69.69000000    25.34000000
   C     63.38000000    70.79000000    27.41000000
   C     64.20000000    70.07000000    28.48000000
   C     64.29000000    70.88000000    29.77000000
   C     62.94000000    71.18000000    30.39000000
   N     62.10000000    69.98000000    30.48000000
   H     64.04000000    70.38000000    24.23000000
   H     64.04000000    69.33000000    25.96000000
   H     62.40000000    71.10000000    27.76000000
   H     63.92000000    71.71000000    27.19000000
   H     65.19000000    69.98000000    28.02000000
   H     63.74000000    69.09000000    28.59000000
   H     64.82000000    71.81000000    29.55000000
   H     64.90000000    70.26000000    30.43000000
   H     62.38000000    71.88000000    29.76000000
   H     63.01000000    71.53000000    31.42000000
   H     61.30000000    70.17000000    31.06000000
   H     61.72000000    69.50000000    29.68000000
   H     62.60000000    69.26000000    31.00000000
   N     61.82000000    68.26000000    26.89000000
   C     60.53000000    67.66000000    27.18000000
   C     59.65000000    68.54000000    28.07000000
   O     60.12000000    69.45000000    28.74000000
   C     60.74000000    66.26000000    27.74000000
   C     61.49000000    66.19000000    29.06000000
   O     62.20000000    67.14000000    29.44000000
   O     61.41000000    65.22000000    29.85000000
   H     62.64000000    67.91000000    27.36000000
   H     59.95000000    67.52000000    26.27000000
   H     61.18000000    65.64000000    26.96000000
   H     59.69000000    66.01000000    27.93000000
   N     58.33000000    68.36000000    27.98000000
   C     57.39000000    69.03000000    28.86000000
   C     56.12000000    68.23000000    29.12000000
   O     55.06000000    68.66000000    28.68000000
   H     57.97000000    67.73000000    27.29000000
   H     57.25000000    70.03000000    28.43000000
   H     57.82000000    69.29000000    29.82000000
   N     56.27000000    67.08000000    29.79000000
   C     55.21000000    66.14000000    30.08000000
   C     54.51000000    66.46000000    31.39000000
   O     55.20000000    66.51000000    32.41000000
   C     55.87000000    64.77000000    29.99000000
   C     54.98000000    63.54000000    29.88000000
   N     54.03000000    63.50000000    28.94000000
   O     55.06000000    62.54000000    30.58000000
   H     57.23000000    66.82000000    29.99000000
   H     54.49000000    66.23000000    29.26000000
   H     56.39000000    64.68000000    30.94000000
   H     56.60000000    64.68000000    29.19000000
   H     53.86000000    64.26000000    28.29000000
   H     53.52000000    62.63000000    29.00000000
   N     53.18000000    66.34000000    31.48000000
   C     52.42000000    66.60000000    32.68000000
   C     52.69000000    67.95000000    33.32000000
   O     53.11000000    68.93000000    32.71000000
   H     52.68000000    66.00000000    30.67000000
   H     52.64000000    65.78000000    33.35000000
   H     51.37000000    66.64000000    32.38000000
   N     52.42000000    67.97000000    34.63000000
   C     52.71000000    68.96000000    35.65000000
   C     54.14000000    69.45000000    35.84000000
   O     54.41000000    70.27000000    36.71000000
   C     51.63000000    70.04000000    35.64000000
   C     50.20000000    69.55000000    35.63000000
   C     49.52000000    69.32000000    34.43000000
   C     49.57000000    69.40000000    36.87000000
   C     48.17000000    68.94000000    34.42000000
   C     48.23000000    68.99000000    36.88000000
   C     47.54000000    68.80000000    35.67000000
   O     46.20000000    68.53000000    35.65000000
   H     51.91000000    67.15000000    34.93000000
   H     52.51000000    68.50000000    36.62000000
   H     51.85000000    70.65000000    34.76000000
   H     51.77000000    70.73000000    36.48000000
   H     50.05000000    69.47000000    33.50000000
   H     50.19000000    69.58000000    37.74000000
   H     47.64000000    68.82000000    33.49000000
   H     47.79000000    68.77000000    37.84000000
   H     45.80000000    68.68000000    36.51000000
   N     55.11000000    68.94000000    35.08000000
   C     56.51000000    69.31000000    35.03000000
   C     57.31000000    68.91000000    36.26000000
   O     58.51000000    68.65000000    36.21000000
   C     56.65000000    70.76000000    34.58000000
   C     55.83000000    71.11000000    33.34000000
   C     58.12000000    71.14000000    34.48000000
   C     56.25000000    70.51000000    32.00000000
   H     54.87000000    68.16000000    34.49000000
   H     56.89000000    68.65000000    34.24000000
   H     56.29000000    71.38000000    35.40000000
   H     55.94000000    72.19000000    33.30000000
   H     54.80000000    70.81000000    33.54000000
   H     58.50000000    70.42000000    33.75000000
   H     58.24000000    72.11000000    34.00000000
   H     58.58000000    71.16000000    35.47000000
   H     57.31000000    70.27000000    31.97000000
   H     55.64000000    69.62000000    31.85000000
   H     56.11000000    71.20000000    31.17000000
   N     56.71000000    68.94000000    37.45000000
   C     57.36000000    68.66000000    38.71000000
   C     58.29000000    69.73000000    39.26000000
   O     59.15000000    69.32000000    40.03000000
   C     56.35000000    68.39000000    39.82000000
   O     55.45000000    67.36000000    39.47000000
   H     55.73000000    69.18000000    37.54000000
   H     58.04000000    67.83000000    38.52000000
   H     55.81000000    69.33000000    39.96000000
   H     56.81000000    68.19000000    40.79000000
   H     54.79000000    67.44000000    40.16000000
   N     58.12000000    70.99000000    38.87000000
   C     59.04000000    72.07000000    39.18000000
   C     60.50000000    71.83000000    38.80000000
   O     61.41000000    72.56000000    39.18000000
   C     58.93000000    72.49000000    40.64000000
   H     57.29000000    71.31000000    38.38000000
   H     58.74000000    72.89000000    38.53000000
   H     57.90000000    72.53000000    40.99000000
   H     59.48000000    71.86000000    41.34000000
   H     59.25000000    73.53000000    40.71000000
   N     60.81000000    70.83000000    37.97000000
   C     62.08000000    70.43000000    37.40000000
   C     62.57000000    71.22000000    36.19000000
   O     61.82000000    71.84000000    35.44000000
   C     61.97000000    68.95000000    37.06000000
   H     60.06000000    70.21000000    37.74000000
   H     62.90000000    70.54000000    38.11000000
   H     62.98000000    68.54000000    37.02000000
   H     61.39000000    68.39000000    37.79000000
   H     61.36000000    68.80000000    36.17000000
   N     63.88000000    71.10000000    35.94000000
   C     64.61000000    71.44000000    34.73000000
   C     64.40000000    72.86000000    34.24000000
   O     64.80000000    73.20000000    33.13000000
   C     64.49000000    70.40000000    33.62000000
   C     64.64000000    68.94000000    34.05000000
   C     64.52000000    67.96000000    32.89000000
   O     63.61000000    68.10000000    32.04000000
   O     65.24000000    66.95000000    32.85000000
   H     64.38000000    70.58000000    36.64000000
   H     65.64000000    71.43000000    35.10000000
   H     65.15000000    70.61000000    32.79000000
   H     63.47000000    70.39000000    33.24000000
   H     63.86000000    68.67000000    34.77000000
   H     65.63000000    68.85000000    34.50000000
   N     63.94000000    73.78000000    35.10000000
   C     63.49000000    75.13000000    34.83000000
   H     62.54800000    75.30900000    35.34900000
   H     64.23900000    75.84000000    35.18100000
   H     63.34300000    75.25700000    33.75700000
   H     63.55000000    73.33000000    35.91000000
  Ca     63.71000000    65.68000000    31.02000000
   O     66.00000000    64.25000000    31.55000000
   H     66.15000000    63.34000000    31.81000000
   H     66.87000000    64.65000000    31.57000000
   O     66.10000000    67.03000000    30.15000000
   H     66.23000000    67.51000000    29.32000000
   H     66.31000000    67.67000000    30.83000000
   O     62.56000000    65.25000000    33.31000000
   H     61.70000000    65.37000000    33.70000000
   H     63.08000000    64.85000000    34.01000000
   O     64.63000000    64.58000000    28.71000000
   H     64.66000000    65.08000000    27.90000000
   H     65.19000000    63.83000000    28.56000000
   O     63.16000000    62.93000000    31.15000000
   H     63.76000000    62.20000000    30.99000000
   H     62.40000000    62.74000000    30.60000000

Ca 1.00



