%chk=loop2.apoCaM-CA-Ng.Init31.run2.water3.chk
%nprocshared=20
%mem=10GB
%nosave
#b3lyp/svp scf=(tight,noincore,xqc) Test 
#IOP(5/87=12) Density=Current Pop=(MK,readradii) iop(6/33=2) iop(6/42=6)

loop2.apoCaM-CA-Ng.Init31.run2.water3 

   -2  1 
   C     41.52000000    44.34000000     5.05000000
   C     40.60000000    45.46000000     5.52000000
   O     41.00000000    46.38000000     6.22000000
   H     42.46400000    44.39400000     5.59200000
   H     41.04700000    43.37700000     5.24000000
   H     41.70900000    44.44800000     3.98200000
   N     39.30000000    45.49000000     5.24000000
   C     38.29000000    44.47000000     5.06000000
   C     36.96000000    44.92000000     5.66000000
   O     36.34000000    45.91000000     5.27000000
   C     37.96000000    44.08000000     3.62000000
   C     37.67000000    45.15000000     2.59000000
   O     37.64000000    44.86000000     1.37000000
   O     37.54000000    46.36000000     2.90000000
   H     38.85000000    46.38000000     5.40000000
   H     38.55000000    43.61000000     5.67000000
   H     37.11000000    43.41000000     3.65000000
   H     38.80000000    43.52000000     3.21000000
   N     36.53000000    44.20000000     6.70000000
   C     35.21000000    44.24000000     7.29000000
   C     34.17000000    43.55000000     6.42000000
   O     33.45000000    42.65000000     6.85000000
   C     34.75000000    45.59000000     7.84000000
   H     37.23000000    43.59000000     7.10000000
   H     35.32000000    43.71000000     8.23000000
   H     34.11000000    46.19000000     7.19000000
   H     34.12000000    45.40000000     8.70000000
   H     35.62000000    46.14000000     8.20000000
   N     34.23000000    43.88000000     5.12000000
   C     33.39000000    43.38000000     4.05000000
   C     34.21000000    43.61000000     2.79000000
   O     34.86000000    44.62000000     2.57000000
   C     32.10000000    44.20000000     4.09000000
   C     32.09000000    45.69000000     4.39000000
   O     33.05000000    46.45000000     4.17000000
   O     31.05000000    46.11000000     4.95000000
   H     34.89000000    44.61000000     4.90000000
   H     33.23000000    42.30000000     4.09000000
   H     31.56000000    43.75000000     4.93000000
   H     31.53000000    43.99000000     3.18000000
   N     34.20000000    42.60000000     1.91000000
   C     35.16000000    42.37000000     0.85000000
   C     34.87000000    43.28000000    -0.34000000
   O     34.39000000    42.82000000    -1.37000000
   H     33.62000000    41.80000000     2.12000000
   H     35.07000000    41.36000000     0.46000000
   H     36.18000000    42.48000000     1.22000000
   N     35.08000000    44.60000000    -0.23000000
   C     34.71000000    45.54000000    -1.26000000
   C     35.57000000    46.80000000    -1.19000000
   O     35.40000000    47.77000000    -1.92000000
   C     33.23000000    45.87000000    -1.05000000
   C     32.88000000    46.48000000     0.30000000
   N     31.61000000    46.86000000     0.41000000
   O     33.72000000    46.77000000     1.16000000
   H     35.35000000    44.92000000     0.69000000
   H     34.86000000    45.14000000    -2.26000000
   H     32.67000000    44.95000000    -1.20000000
   H     32.94000000    46.65000000    -1.76000000
   H     31.06000000    46.85000000    -0.44000000
   H     31.41000000    47.24000000     1.32000000
   N     36.57000000    46.78000000    -0.32000000
   C     37.50000000    47.88000000    -0.14000000
   C     37.11000000    48.97000000     0.85000000
   O     36.05000000    49.01000000     1.47000000
   H     36.73000000    46.02000000     0.34000000
   H     37.63000000    48.43000000    -1.07000000
   H     38.42000000    47.40000000     0.18000000
   N     37.77000000    50.13000000     0.97000000
   C     38.83000000    50.56000000     0.08000000
   C     40.06000000    51.13000000     0.78000000
   O     40.85000000    51.82000000     0.14000000
   C     38.15000000    51.41000000    -0.99000000
   C     38.30000000    52.88000000    -0.64000000
   O     38.58000000    51.20000000    -2.31000000
   H     37.12000000    50.81000000     1.34000000
   H     39.21000000    49.68000000    -0.45000000
   H     37.10000000    51.10000000    -0.95000000
   H     39.49000000    50.87000000    -2.27000000
   H     39.27000000    53.29000000    -0.93000000
   H     37.56000000    53.41000000    -1.25000000
   H     38.12000000    53.05000000     0.42000000
   N     40.14000000    50.88000000     2.09000000
   C     41.08000000    51.36000000     3.08000000
   C     41.09000000    52.85000000     3.34000000
   O     41.91000000    53.57000000     2.78000000
   C     42.47000000    50.73000000     2.98000000
   C     42.55000000    49.25000000     2.65000000
   C     43.33000000    51.12000000     4.18000000
   C     44.01000000    48.83000000     2.44000000
   H     39.57000000    50.13000000     2.45000000
   H     40.81000000    50.86000000     4.01000000
   H     42.90000000    51.25000000     2.12000000
   H     42.15000000    49.21000000     1.64000000
   H     42.12000000    48.48000000     3.28000000
   H     43.55000000    52.19000000     4.27000000
   H     42.89000000    50.77000000     5.11000000
   H     44.35000000    50.78000000     3.98000000
   H     44.61000000    48.76000000     3.34000000
   H     44.01000000    47.92000000     1.82000000
   H     44.44000000    49.55000000     1.74000000
   N     40.09000000    53.36000000     4.07000000
   C     39.08000000    52.63000000     4.81000000
   C     39.63000000    52.20000000     6.16000000
   O     39.28000000    51.13000000     6.65000000
   C     37.78000000    53.41000000     4.97000000
   C     37.89000000    54.78000000     5.63000000
   O     39.03000000    55.24000000     5.83000000
   O     36.83000000    55.34000000     5.98000000
   H     40.16000000    54.35000000     4.27000000
   H     38.82000000    51.73000000     4.24000000
   H     37.02000000    52.82000000     5.48000000
   H     37.43000000    53.57000000     3.96000000
   N     40.66000000    52.82000000     6.75000000
   C     41.54000000    52.38000000     7.82000000
   C     40.91000000    52.41000000     9.20000000
   O     39.93000000    53.13000000     9.38000000
   C     42.80000000    53.24000000     7.81000000
   C     42.56000000    54.71000000     8.07000000
   C     42.09000000    55.53000000     7.03000000
   C     42.87000000    55.25000000     9.32000000
   C     41.89000000    56.90000000     7.24000000
   C     42.60000000    56.60000000     9.55000000
   C     42.09000000    57.41000000     8.53000000
   H     40.88000000    53.72000000     6.36000000
   H     41.82000000    51.35000000     7.61000000
   H     43.22000000    53.21000000     6.81000000
   H     43.57000000    52.81000000     8.46000000
   H     42.00000000    55.16000000     6.02000000
   H     43.23000000    54.61000000    10.12000000
   H     41.51000000    57.50000000     6.43000000
   H     42.75000000    56.99000000    10.55000000
   H     41.93000000    58.47000000     8.67000000
   N     41.45000000    51.73000000    10.22000000
   C     42.56000000    50.80000000    10.22000000
   C     42.21000000    49.45000000     9.60000000
   O     41.07000000    49.30000000     9.18000000
   C     42.93000000    50.60000000    11.68000000
   C     41.64000000    50.89000000    12.44000000
   C     40.84000000    51.81000000    11.53000000
   H     43.44000000    51.14000000     9.67000000
   H     43.40000000    49.65000000    11.97000000
   H     43.63000000    51.36000000    12.00000000
   H     41.23000000    49.90000000    12.68000000
   H     41.88000000    51.42000000    13.36000000
   H     39.80000000    51.48000000    11.48000000
   H     41.00000000    52.85000000    11.79000000
   N     43.13000000    48.49000000     9.46000000
   C     42.82000000    47.17000000     8.97000000
   C     44.00000000    46.40000000     8.39000000
   O     43.90000000    45.25000000     7.97000000
   C     42.09000000    46.30000000     9.99000000
   C     42.84000000    45.96000000    11.28000000
   C     41.94000000    45.34000000    12.33000000
   O     41.01000000    45.99000000    12.86000000
   O     42.16000000    44.15000000    12.62000000
   H     44.05000000    48.57000000     9.87000000
   H     42.19000000    47.20000000     8.08000000
   H     41.91000000    45.29000000     9.60000000
   H     41.11000000    46.71000000    10.22000000
   H     43.18000000    46.93000000    11.64000000
   H     43.65000000    45.27000000    11.02000000
   N     45.22000000    46.92000000     8.21000000
   C     45.68000000    48.28000000     8.04000000
   H     46.65000000    48.27500000     7.54300000
   H     44.96400000    48.83300000     7.43300000
   H     45.77500000    48.75700000     9.01600000
   H     45.87000000    46.20000000     7.93000000
  Ca     35.21000000    47.46000000     3.41000000
   O     37.04000000    48.96000000     4.62000000
   H     37.95000000    48.77000000     4.84000000
   H     36.79000000    49.66000000     5.22000000
   O     33.32000000    49.47000000     3.03000000
   H     32.51000000    49.73000000     2.60000000
   H     33.47000000    50.14000000     3.69000000
   O     34.50000000    48.56000000     5.86000000
   H     34.81000000    49.03000000     6.64000000
   H     33.57000000    48.43000000     6.01000000

Ca 1.00



