%chk=loop2.holoCaM.run9.water1.chk
%nprocshared=20
%mem=10GB
%nosave
#b3lyp/svp scf=(tight,noincore,xqc) Test 
#IOP(5/87=12) Density=Current Pop=(MK,readradii) iop(6/33=2) iop(6/42=6)

loop2.holoCaM.run9.water1 

   -2  1 
   C     36.20000000    30.74000000    -1.37000000
   C     35.40000000    31.49000000    -2.43000000
   O     35.18000000    32.69000000    -2.30000000
   H     37.10700000    31.29800000    -1.13800000
   H     35.59800000    30.63400000    -0.46700000
   H     36.46800000    29.75300000    -1.74700000
   N     35.04000000    30.78000000    -3.51000000
   C     34.42000000    31.36000000    -4.68000000
   C     32.90000000    31.32000000    -4.67000000
   O     32.33000000    30.26000000    -4.92000000
   C     34.97000000    30.71000000    -5.95000000
   C     34.26000000    30.99000000    -7.26000000
   O     33.52000000    31.99000000    -7.41000000
   O     34.38000000    30.20000000    -8.23000000
   H     35.37000000    29.82000000    -3.45000000
   H     34.68000000    32.42000000    -4.74000000
   H     34.85000000    29.63000000    -5.87000000
   H     36.03000000    30.95000000    -6.09000000
   N     32.23000000    32.38000000    -4.22000000
   C     30.94000000    32.29000000    -3.56000000
   C     29.78000000    31.93000000    -4.48000000
   O     28.82000000    31.31000000    -4.06000000
   C     30.70000000    33.65000000    -2.91000000
   H     32.72000000    33.26000000    -4.26000000
   H     30.92000000    31.54000000    -2.76000000
   H     31.02000000    34.45000000    -3.58000000
   H     29.64000000    33.75000000    -2.70000000
   H     31.26000000    33.62000000    -1.98000000
   N     29.74000000    32.37000000    -5.74000000
   C     28.76000000    31.97000000    -6.73000000
   C     29.17000000    30.65000000    -7.37000000
   O     28.32000000    29.89000000    -7.83000000
   C     28.54000000    33.03000000    -7.81000000
   C     29.73000000    33.72000000    -8.47000000
   O     29.47000000    34.44000000    -9.45000000
   O     30.92000000    33.59000000    -8.10000000
   H     30.59000000    32.86000000    -5.98000000
   H     27.76000000    31.80000000    -6.34000000
   H     28.09000000    33.87000000    -7.29000000
   H     27.89000000    32.57000000    -8.55000000
   N     30.46000000    30.32000000    -7.28000000
   C     31.06000000    29.18000000    -7.94000000
   C     31.09000000    29.35000000    -9.45000000
   O     30.77000000    28.37000000   -10.12000000
   H     31.06000000    30.92000000    -6.73000000
   H     30.50000000    28.29000000    -7.65000000
   H     32.09000000    29.14000000    -7.59000000
   N     31.46000000    30.52000000    -9.98000000
   C     31.64000000    30.73000000   -11.40000000
   C     33.00000000    30.33000000   -11.96000000
   O     33.28000000    30.59000000   -13.13000000
   C     31.39000000    32.19000000   -11.75000000
   C     32.66000000    33.03000000   -11.61000000
   N     33.09000000    33.78000000   -12.63000000
   O     33.22000000    33.06000000   -10.52000000
   H     31.53000000    31.33000000    -9.38000000
   H     30.89000000    30.17000000   -11.97000000
   H     30.71000000    32.63000000   -11.02000000
   H     31.08000000    32.36000000   -12.78000000
   H     32.51000000    33.90000000   -13.44000000
   H     33.82000000    34.41000000   -12.32000000
   N     33.92000000    29.82000000   -11.14000000
   C     35.27000000    29.39000000   -11.47000000
   C     36.42000000    30.38000000   -11.36000000
   O     37.53000000    30.12000000   -11.82000000
   H     33.66000000    29.88000000   -10.17000000
   H     35.25000000    29.01000000   -12.49000000
   H     35.49000000    28.61000000   -10.74000000
   N     36.22000000    31.59000000   -10.83000000
   C     37.30000000    32.49000000   -10.49000000
   C     36.97000000    33.26000000    -9.22000000
   O     35.80000000    33.39000000    -8.84000000
   C     37.54000000    33.46000000   -11.63000000
   C     38.55000000    33.00000000   -12.69000000
   O     36.37000000    33.82000000   -12.33000000
   H     35.31000000    31.89000000   -10.51000000
   H     38.20000000    31.89000000   -10.32000000
   H     37.81000000    34.40000000   -11.15000000
   H     35.90000000    34.51000000   -11.86000000
   H     39.51000000    32.97000000   -12.18000000
   H     38.26000000    32.01000000   -13.05000000
   H     38.63000000    33.83000000   -13.39000000
   N     38.00000000    33.91000000    -8.68000000
   C     38.07000000    34.72000000    -7.48000000
   C     37.96000000    36.20000000    -7.82000000
   O     38.88000000    36.71000000    -8.45000000
   C     39.34000000    34.42000000    -6.69000000
   C     39.17000000    33.03000000    -6.07000000
   C     39.78000000    35.37000000    -5.59000000
   C     40.26000000    32.49000000    -5.15000000
   H     38.87000000    33.58000000    -9.08000000
   H     37.18000000    34.58000000    -6.86000000
   H     40.12000000    34.33000000    -7.44000000
   H     38.79000000    32.28000000    -6.76000000
   H     38.27000000    33.16000000    -5.46000000
   H     39.20000000    35.20000000    -4.68000000
   H     40.85000000    35.34000000    -5.39000000
   H     39.52000000    36.38000000    -5.90000000
   H     40.38000000    33.16000000    -4.29000000
   H     39.97000000    31.49000000    -4.83000000
   H     41.23000000    32.48000000    -5.64000000
   N     36.92000000    36.87000000    -7.32000000
   C     36.87000000    38.32000000    -7.34000000
   C     37.57000000    38.98000000    -6.16000000
   O     37.95000000    38.25000000    -5.24000000
   C     35.38000000    38.66000000    -7.44000000
   C     34.60000000    37.97000000    -8.54000000
   O     34.15000000    36.81000000    -8.37000000
   O     34.36000000    38.57000000    -9.61000000
   H     36.14000000    36.33000000    -6.98000000
   H     37.38000000    38.76000000    -8.20000000
   H     35.33000000    39.73000000    -7.65000000
   H     34.95000000    38.52000000    -6.45000000
   N     37.49000000    40.31000000    -6.08000000
   C     38.07000000    41.01000000    -4.95000000
   C     37.34000000    40.74000000    -3.64000000
   O     38.06000000    40.46000000    -2.69000000
   C     38.27000000    42.44000000    -5.42000000
   C     38.69000000    43.40000000    -4.33000000
   C     39.92000000    43.29000000    -3.67000000
   C     37.83000000    44.45000000    -3.98000000
   C     40.36000000    44.20000000    -2.71000000
   C     38.30000000    45.44000000    -3.12000000
   C     39.57000000    45.34000000    -2.53000000
   H     37.34000000    40.90000000    -6.88000000
   H     39.05000000    40.59000000    -4.73000000
   H     37.30000000    42.81000000    -5.75000000
   H     39.01000000    42.43000000    -6.22000000
   H     40.49000000    42.38000000    -3.81000000
   H     36.91000000    44.56000000    -4.54000000
   H     41.30000000    44.10000000    -2.18000000
   H     37.71000000    46.32000000    -2.91000000
   H     39.99000000    46.22000000    -2.06000000
   N     36.02000000    40.69000000    -3.48000000
   C     35.43000000    40.34000000    -2.20000000
   C     35.54000000    38.86000000    -1.86000000
   O     35.30000000    38.62000000    -0.68000000
   C     33.98000000    40.80000000    -2.20000000
   C     33.95000000    41.87000000    -3.29000000
   C     34.97000000    41.29000000    -4.28000000
   H     35.93000000    40.87000000    -1.39000000
   H     33.32000000    39.99000000    -2.50000000
   H     33.63000000    41.24000000    -1.27000000
   H     32.99000000    42.01000000    -3.78000000
   H     34.24000000    42.84000000    -2.88000000
   H     34.52000000    40.49000000    -4.86000000
   H     35.37000000    42.05000000    -4.95000000
   N     35.92000000    38.02000000    -2.82000000
   C     36.30000000    36.64000000    -2.56000000
   C     37.75000000    36.43000000    -2.15000000
   O     38.02000000    35.67000000    -1.22000000
   C     35.94000000    35.84000000    -3.80000000
   C     34.44000000    35.80000000    -4.10000000
   C     34.04000000    35.27000000    -5.47000000
   O     34.89000000    34.64000000    -6.15000000
   O     32.85000000    35.23000000    -5.85000000
   H     36.14000000    38.31000000    -3.76000000
   H     35.68000000    36.32000000    -1.72000000
   H     36.26000000    34.80000000    -3.73000000
   H     36.47000000    36.34000000    -4.60000000
   H     34.11000000    36.82000000    -3.91000000
   H     33.97000000    35.15000000    -3.37000000
   N     38.66000000    37.26000000    -2.64000000
   C     40.04000000    37.33000000    -2.18000000
   H     40.63700000    37.88000000    -2.90700000
   H     40.07800000    37.84200000    -1.21800000
   H     40.43900000    36.32100000    -2.07100000
   H     38.40000000    37.91000000    -3.37000000
  Ca     33.40000000    34.36000000    -8.24000000
   O     31.69000000    35.66000000    -9.77000000
   H     31.48000000    36.53000000   -10.10000000
   H     30.83000000    35.24000000    -9.64000000

Ca 1.00



