%chk=loop1.apoCaM-CA-Ng.Init293.run49.water6.chk
%nprocshared=20
%mem=10GB
%nosave
#b3lyp/svp scf=(tight,noincore,xqc) Test 
#IOP(5/87=12) Density=Current Pop=(MK,readradii) iop(6/33=2) iop(6/42=6)

loop1.apoCaM-CA-Ng.Init293.run49.water6 

   0  1 
   C     39.18000000    72.11000000   113.14000000
   C     38.95000000    71.67000000   114.58000000
   O     39.53000000    72.25000000   115.50000000
   H     40.22900000    71.96700000   112.88000000
   H     38.55700000    71.51400000   112.47300000
   H     38.92100000    73.16400000   113.03600000
   N     38.09000000    70.69000000   114.88000000
   C     37.83000000    70.32000000   116.25000000
   C     38.72000000    69.20000000   116.77000000
   O     38.71000000    69.03000000   117.99000000
   C     36.34000000    70.05000000   116.35000000
   C     35.47000000    71.29000000   116.18000000
   O     34.81000000    71.44000000   115.13000000
   O     35.34000000    72.07000000   117.15000000
   H     37.41000000    70.38000000   114.20000000
   H     38.06000000    71.19000000   116.87000000
   H     36.07000000    69.65000000   117.33000000
   H     36.08000000    69.28000000   115.62000000
   N     39.28000000    68.42000000   115.85000000
   C     39.79000000    67.07000000   115.99000000
   C     41.08000000    67.03000000   116.79000000
   O     42.08000000    67.57000000   116.31000000
   C     39.94000000    66.40000000   114.62000000
   C     39.66000000    64.92000000   114.83000000
   C     39.69000000    64.21000000   113.47000000
   C     39.12000000    62.80000000   113.39000000
   N     38.86000000    62.43000000   111.99000000
   H     39.14000000    68.71000000   114.90000000
   H     39.07000000    66.57000000   116.64000000
   H     40.91000000    66.64000000   114.20000000
   H     39.23000000    66.77000000   113.88000000
   H     38.69000000    64.75000000   115.29000000
   H     40.44000000    64.54000000   115.49000000
   H     40.72000000    64.19000000   113.11000000
   H     39.15000000    64.81000000   112.74000000
   H     38.29000000    62.67000000   114.09000000
   H     39.88000000    62.07000000   113.68000000
   H     38.67000000    61.44000000   111.91000000
   H     38.10000000    62.93000000   111.56000000
   H     39.72000000    62.52000000   111.47000000
   N     41.19000000    66.47000000   118.00000000
   C     40.19000000    66.03000000   118.94000000
   C     40.70000000    66.18000000   120.36000000
   O     40.96000000    65.17000000   121.02000000
   C     39.62000000    64.64000000   118.64000000
   C     38.44000000    64.31000000   119.55000000
   O     37.78000000    65.26000000   120.01000000
   O     38.28000000    63.10000000   119.83000000
   H     42.13000000    66.58000000   118.36000000
   H     39.33000000    66.69000000   118.85000000
   H     40.46000000    63.95000000   118.76000000
   H     39.22000000    64.59000000   117.63000000
   N     41.04000000    67.38000000   120.82000000
   C     41.00000000    68.61000000   120.06000000
   C     41.65000000    69.77000000   120.80000000
   O     42.35000000    69.65000000   121.80000000
   H     41.44000000    67.43000000   121.75000000
   H     39.98000000    68.96000000   119.88000000
   H     41.56000000    68.53000000   119.13000000
   N     41.55000000    70.96000000   120.20000000
   C     40.99000000    71.33000000   118.92000000
   C     40.36000000    72.70000000   119.10000000
   O     40.24000000    73.24000000   120.19000000
   C     42.07000000    71.24000000   117.84000000
   C     43.27000000    72.14000000   118.09000000
   O     43.05000000    73.31000000   118.49000000
   O     44.39000000    71.65000000   117.84000000
   H     41.91000000    71.76000000   120.70000000
   H     40.13000000    70.72000000   118.64000000
   H     41.57000000    71.39000000   116.89000000
   H     42.32000000    70.18000000   117.82000000
   N     39.85000000    73.32000000   118.03000000
   C     39.36000000    74.68000000   117.93000000
   C     40.22000000    75.53000000   117.01000000
   O     39.80000000    76.58000000   116.53000000
   H     40.03000000    72.89000000   117.13000000
   H     39.42000000    75.04000000   118.95000000
   H     38.34000000    74.66000000   117.55000000
   N     41.49000000    75.17000000   116.85000000
   C     42.53000000    76.08000000   116.41000000
   C     43.24000000    75.47000000   115.20000000
   O     43.40000000    74.26000000   115.11000000
   C     43.48000000    76.30000000   117.58000000
   C     44.18000000    77.65000000   117.47000000
   O     44.50000000    75.33000000   117.70000000
   H     41.81000000    74.51000000   117.54000000
   H     42.11000000    77.00000000   116.00000000
   H     42.98000000    76.35000000   118.54000000
   H     44.11000000    74.62000000   118.22000000
   H     43.47000000    78.47000000   117.57000000
   H     45.02000000    77.72000000   118.16000000
   H     44.73000000    77.73000000   116.53000000
   N     43.68000000    76.34000000   114.29000000
   C     44.57000000    76.00000000   113.20000000
   C     45.69000000    77.02000000   113.16000000
   O     45.52000000    78.21000000   113.42000000
   C     43.79000000    75.98000000   111.89000000
   C     44.78000000    75.88000000   110.73000000
   C     42.64000000    76.97000000   111.76000000
   C     44.22000000    75.17000000   109.50000000
   H     43.25000000    77.26000000   114.30000000
   H     45.05000000    75.03000000   113.32000000
   H     43.33000000    74.99000000   111.94000000
   H     45.60000000    75.28000000   111.14000000
   H     45.13000000    76.89000000   110.53000000
   H     41.82000000    76.77000000   112.46000000
   H     43.07000000    77.93000000   112.02000000
   H     42.18000000    76.84000000   110.78000000
   H     45.05000000    75.25000000   108.80000000
   H     43.96000000    74.15000000   109.77000000
   H     43.36000000    75.69000000   109.08000000
   N     46.90000000    76.52000000   112.94000000
   C     48.11000000    77.28000000   112.74000000
   C     49.04000000    76.68000000   111.69000000
   O     49.98000000    77.33000000   111.24000000
   C     48.89000000    77.56000000   114.02000000
   C     49.43000000    76.30000000   114.70000000
   O     48.08000000    78.18000000   114.99000000
   H     47.07000000    75.52000000   112.85000000
   H     47.85000000    78.25000000   112.31000000
   H     49.83000000    78.11000000   113.97000000
   H     47.56000000    78.94000000   114.73000000
   H     50.04000000    75.69000000   114.02000000
   H     50.04000000    76.50000000   115.58000000
   H     48.60000000    75.68000000   115.02000000
   N     48.77000000    75.43000000   111.29000000
   C     49.53000000    74.59000000   110.39000000
   C     50.88000000    74.18000000   110.96000000
   O     51.39000000    74.71000000   111.95000000
   C     49.56000000    75.24000000   109.01000000
   C     48.22000000    75.77000000   108.53000000
   O     50.20000000    74.44000000   108.04000000
   H     48.02000000    75.02000000   111.83000000
   H     49.01000000    73.64000000   110.20000000
   H     50.27000000    76.06000000   109.13000000
   H     49.78000000    74.64000000   107.20000000
   H     47.40000000    75.07000000   108.69000000
   H     48.01000000    76.59000000   109.22000000
   H     48.26000000    76.22000000   107.54000000
   N     51.55000000    73.20000000   110.36000000
   C     52.89000000    72.76000000   110.70000000
   C     53.06000000    71.54000000   111.59000000
   O     54.07000000    71.49000000   112.29000000
   C     53.69000000    72.64000000   109.40000000
   C     55.21000000    72.61000000   109.57000000
   C     55.95000000    73.80000000   110.18000000
   C     55.39000000    75.10000000   109.59000000
   N     55.89000000    76.16000000   110.48000000
   H     51.34000000    73.09000000   109.38000000
   H     53.30000000    73.56000000   111.30000000
   H     53.58000000    73.50000000   108.74000000
   H     53.48000000    71.69000000   108.91000000
   H     55.61000000    72.60000000   108.56000000
   H     55.44000000    71.74000000   110.18000000
   H     57.02000000    73.72000000   109.99000000
   H     55.72000000    73.83000000   111.24000000
   H     54.31000000    75.12000000   109.71000000
   H     55.65000000    75.19000000   108.53000000
   H     55.47000000    77.05000000   110.25000000
   H     55.57000000    75.91000000   111.40000000
   H     56.88000000    76.31000000   110.35000000
   N     52.26000000    70.47000000   111.62000000
   C     50.93000000    70.19000000   111.09000000
   C     50.80000000    70.45000000   109.60000000
   O     50.15000000    71.32000000   109.02000000
   C     49.79000000    70.86000000   111.84000000
   C     49.73000000    70.28000000   113.25000000
   C     48.45000000    70.54000000   114.03000000
   O     47.49000000    69.74000000   114.04000000
   O     48.41000000    71.57000000   114.73000000
   H     52.53000000    69.82000000   112.34000000
   H     50.79000000    69.11000000   111.14000000
   H     48.83000000    70.70000000   111.35000000
   H     49.86000000    71.94000000   111.96000000
   H     50.58000000    70.61000000   113.85000000
   H     49.70000000    69.19000000   113.21000000
   N     51.55000000    69.62000000   108.87000000
   C     51.60000000    69.68000000   107.43000000
   H     52.54100000    70.13300000   107.11800000
   H     51.53000000    68.67200000   107.02100000
   H     50.76800000    70.28100000   107.06200000
   H     52.12000000    68.91000000   109.32000000
  Ca     46.46000000    70.88000000   116.49900000
   O     44.80000000    68.75000000   116.30900000
   H     43.91000000    68.45000000   116.47900000
   H     45.19000000    68.08000000   115.74900000
   O     48.89000000    69.53000000   116.80900000
   H     49.63000000    69.84000000   117.32900000
   H     48.95000000    68.58000000   116.83900000
   O     48.46000000    72.05000000   117.88900000
   H     48.30000000    72.92000000   118.25900000
   H     49.36000000    72.08000000   117.56900000
   O     46.24000000    73.58000000   116.32900000
   H     45.41000000    74.04000000   116.43900000
   H     46.84000000    74.03000000   116.92900000
   O     46.70000000    69.49000000   118.71900000
   H     46.84000000    68.55000000   118.67900000
   H     46.47000000    69.66000000   119.62900000
   O     44.47000000    71.54000000   114.66900000
   H     43.82000000    70.87000000   114.46900000
   H     43.97000000    72.36000000   114.65900000

Ca 1.00



