%chk=loop2.holoCaM-CaMKII.run63.water2.chk
%nprocshared=20
%mem=10GB
%nosave
#b3lyp/svp scf=(tight,noincore,xqc) Test 
#IOP(5/87=12) Density=Current Pop=(MK,readradii) iop(6/33=2) iop(6/42=6)

loop2.holoCaM-CaMKII.run63.water2 

   -2  1 
   C      9.28000000    40.15000000   114.76300000
   C      8.67000000    40.82000000   115.98300000
   O      9.48000000    41.17000000   116.84300000
   H     10.29000000    39.81600000   115.00000000
   H      8.67200000    39.29200000   114.47700000
   H      9.31700000    40.86100000   113.93800000
   N      7.36000000    41.03000000   116.11300000
   C      6.68000000    41.83000000   117.11300000
   C      6.52000000    41.09000000   118.43300000
   O      6.20000000    39.91000000   118.42300000
   C      5.28000000    42.17000000   116.58300000
   C      4.58000000    43.21000000   117.44300000
   O      5.23000000    43.92000000   118.24300000
   O      3.41000000    43.49000000   117.08300000
   H      6.81000000    40.84000000   115.28300000
   H      7.34000000    42.67000000   117.34300000
   H      4.64000000    41.29000000   116.51300000
   H      5.37000000    42.53000000   115.56300000
   N      6.73000000    41.79000000   119.55300000
   C      6.50000000    41.35000000   120.91300000
   C      5.63000000    42.28000000   121.73300000
   O      5.52000000    42.09000000   122.94300000
   C      7.86000000    41.13000000   121.56300000
   H      6.97000000    42.77000000   119.48300000
   H      6.00000000    40.38000000   120.92300000
   H      8.36000000    40.27000000   121.12300000
   H      8.50000000    42.01000000   121.47300000
   H      7.77000000    40.97000000   122.64300000
   N      5.11000000    43.35000000   121.13300000
   C      4.25000000    44.26000000   121.86300000
   C      2.99000000    44.76000000   121.17300000
   O      2.18000000    45.30000000   121.93300000
   C      5.12000000    45.41000000   122.36300000
   C      5.86000000    46.21000000   121.30300000
   O      5.35000000    46.28000000   120.16300000
   O      6.99000000    46.66000000   121.58300000
   H      5.31000000    43.51000000   120.15300000
   H      3.87000000    43.80000000   122.77300000
   H      5.87000000    45.02000000   123.06300000
   H      4.56000000    46.07000000   123.02300000
   N      2.77000000    44.53000000   119.88300000
   C      1.62000000    44.99000000   119.12300000
   C      1.44000000    46.44000000   118.72300000
   O      0.42000000    46.88000000   118.21300000
   H      3.51000000    44.25000000   119.25300000
   H      0.77000000    44.67000000   119.73300000
   H      1.48000000    44.40000000   118.22300000
   N      2.48000000    47.26000000   118.86300000
   C      2.47000000    48.70000000   118.71300000
   C      2.40000000    49.09000000   117.24300000
   O      2.17000000    50.25000000   116.91300000
   C      3.60000000    49.38000000   119.47300000
   C      4.95000000    49.42000000   118.77300000
   N      5.90000000    50.22000000   119.26300000
   O      5.35000000    48.69000000   117.87300000
   H      3.24000000    46.94000000   119.45300000
   H      1.52000000    49.09000000   119.07300000
   H      3.84000000    48.82000000   120.37300000
   H      3.39000000    50.41000000   119.77300000
   H      5.73000000    50.84000000   120.04300000
   H      6.85000000    50.27000000   118.93300000
   N      2.59000000    48.13000000   116.33300000
   C      2.56000000    48.32000000   114.90300000
   C      3.84000000    48.86000000   114.26300000
   O      3.73000000    49.16000000   113.08300000
   H      2.80000000    47.23000000   116.74300000
   H      1.78000000    49.04000000   114.63300000
   H      2.24000000    47.42000000   114.37300000
   N      4.92000000    49.00000000   115.04300000
   C      6.17000000    49.53000000   114.54300000
   C      7.37000000    48.67000000   114.89300000
   O      7.27000000    48.04000000   115.94300000
   C      6.51000000    50.93000000   115.05300000
   C      5.69000000    52.11000000   114.53300000
   O      6.48000000    50.94000000   116.46300000
   H      4.82000000    48.69000000   115.99300000
   H      6.16000000    49.58000000   113.45300000
   H      7.50000000    51.11000000   114.64300000
   H      6.56000000    50.02000000   116.72300000
   H      4.65000000    52.06000000   114.86300000
   H      6.32000000    52.90000000   114.95300000
   H      5.80000000    52.01000000   113.45300000
   N      8.49000000    48.69000000   114.17300000
   C      9.64000000    47.88000000   114.54300000
   C     10.38000000    48.65000000   115.63300000
   O     10.68000000    49.82000000   115.45300000
   C     10.60000000    47.68000000   113.37300000
   C      9.95000000    47.35000000   112.04300000
   C     11.51000000    46.53000000   113.79300000
   C     10.88000000    47.22000000   110.84300000
   H      8.45000000    49.23000000   113.32300000
   H      9.30000000    46.91000000   114.88300000
   H     11.31000000    48.51000000   113.27300000
   H      9.35000000    48.22000000   111.80300000
   H      9.37000000    46.44000000   112.20300000
   H     12.23000000    46.86000000   114.53300000
   H     10.92000000    45.75000000   114.27300000
   H     11.99000000    46.03000000   112.94300000
   H     10.91000000    48.17000000   110.30300000
   H     11.86000000    46.83000000   111.12300000
   H     10.44000000    46.52000000   110.13300000
   N     10.67000000    48.03000000   116.78300000
   C     11.40000000    48.55000000   117.92300000
   C     12.78000000    47.92000000   117.95300000
   O     12.97000000    46.81000000   117.46300000
   C     10.66000000    48.31000000   119.23300000
   C      9.19000000    48.72000000   119.25300000
   O      8.32000000    47.83000000   119.25300000
   O      8.94000000    49.90000000   119.56300000
   H     10.24000000    47.12000000   116.86300000
   H     11.43000000    49.63000000   117.79300000
   H     11.27000000    48.78000000   120.00300000
   H     10.67000000    47.26000000   119.51300000
   N     13.80000000    48.57000000   118.51300000
   C     15.16000000    48.05000000   118.61300000
   C     15.34000000    46.59000000   118.98300000
   O     15.96000000    45.91000000   118.17300000
   C     16.06000000    48.92000000   119.48300000
   C     17.49000000    48.71000000   119.03300000
   C     18.41000000    47.81000000   119.59300000
   C     17.88000000    49.40000000   117.88300000
   C     19.69000000    47.62000000   119.08300000
   C     19.12000000    49.12000000   117.29300000
   C     20.07000000    48.29000000   117.90300000
   H     13.60000000    49.51000000   118.81300000
   H     15.66000000    48.24000000   117.66300000
   H     15.95000000    48.62000000   120.52300000
   H     15.92000000    50.00000000   119.46300000
   H     18.06000000    47.36000000   120.50300000
   H     17.17000000    50.04000000   117.38300000
   H     20.40000000    46.93000000   119.52300000
   H     19.40000000    49.58000000   116.36300000
   H     20.99000000    48.13000000   117.37300000
   N     14.74000000    46.05000000   120.05300000
   C     14.91000000    44.64000000   120.34300000
   C     14.36000000    43.76000000   119.23300000
   O     14.70000000    42.58000000   119.26300000
   C     14.31000000    44.33000000   121.71300000
   C     13.33000000    45.48000000   121.90300000
   C     14.01000000    46.63000000   121.16300000
   H     15.99000000    44.49000000   120.36300000
   H     13.81000000    43.36000000   121.64300000
   H     15.03000000    44.38000000   122.52300000
   H     12.41000000    45.21000000   121.38300000
   H     13.18000000    45.81000000   122.93300000
   H     13.30000000    47.37000000   120.81300000
   H     14.73000000    47.10000000   121.83300000
   N     13.54000000    44.24000000   118.29300000
   C     12.91000000    43.48000000   117.23300000
   C     13.60000000    43.59000000   115.88300000
   O     13.73000000    42.63000000   115.12300000
   C     11.48000000    44.00000000   117.13300000
   C     10.62000000    43.91000000   118.39300000
   C      9.23000000    44.44000000   118.09300000
   O      8.28000000    44.15000000   118.84300000
   O      9.11000000    45.32000000   117.21300000
   H     13.26000000    45.21000000   118.30300000
   H     12.98000000    42.43000000   117.53300000
   H     10.93000000    43.51000000   116.33300000
   H     11.56000000    45.08000000   117.00300000
   H     11.04000000    44.59000000   119.14300000
   H     10.63000000    42.96000000   118.92300000
   N     14.25000000    44.73000000   115.64300000
   C     15.20000000    44.99000000   114.58300000
   H     16.14500000    44.49800000   114.81400000
   H     14.81000000    44.60300000   113.64200000
   H     15.36200000    46.06400000   114.49500000
   H     14.09000000    45.41000000   116.37300000
  Ca      6.83000000    46.20000000   117.91300000
   O      7.38000000    44.66000000   115.40300000
   H      7.40000000    43.95000000   114.76300000
   H      8.30000000    44.89000000   115.54300000
   O      5.03000000    45.96000000   115.97300000
   H      5.42000000    45.24000000   115.47300000
   H      4.12000000    45.98000000   115.70300000

Ca 1.00



