%chk=loop1.apoCaM-CA-Ng.Init293.run26.water4.chk
%nprocshared=20
%mem=10GB
%nosave
#b3lyp/svp scf=(tight,noincore,xqc) Test 
#IOP(5/87=12) Density=Current Pop=(MK,readradii) iop(6/33=2) iop(6/42=6)

loop1.apoCaM-CA-Ng.Init293.run26.water4 

   0  1 
   C     38.41000000    -3.78000000    39.49000000
   C     38.37000000    -5.10000000    40.26000000
   O     38.32000000    -6.19000000    39.68000000
   H     39.41100000    -3.35300000    39.55400000
   H     38.15800000    -3.96100000    38.44500000
   H     37.69100000    -3.08400000    39.92300000
   N     38.31000000    -4.97000000    41.58000000
   C     38.47000000    -6.13000000    42.44000000
   C     37.13000000    -6.55000000    43.02000000
   O     37.11000000    -7.08000000    44.13000000
   C     39.53000000    -5.88000000    43.51000000
   C     39.19000000    -4.67000000    44.37000000
   O     39.17000000    -3.53000000    43.86000000
   O     39.11000000    -4.79000000    45.61000000
   H     38.22000000    -4.03000000    41.95000000
   H     38.82000000    -6.96000000    41.84000000
   H     40.54000000    -5.79000000    43.10000000
   H     39.43000000    -6.72000000    44.19000000
   N     36.03000000    -6.32000000    42.29000000
   C     34.70000000    -6.74000000    42.69000000
   C     33.81000000    -7.40000000    41.65000000
   O     33.25000000    -6.72000000    40.79000000
   C     33.90000000    -5.59000000    43.30000000
   C     34.42000000    -4.99000000    44.61000000
   C     35.41000000    -3.83000000    44.49000000
   C     35.92000000    -3.27000000    45.82000000
   N     36.56000000    -4.37000000    46.54000000
   H     36.15000000    -5.93000000    41.36000000
   H     34.92000000    -7.48000000    43.46000000
   H     32.93000000    -6.06000000    43.45000000
   H     33.66000000    -4.78000000    42.61000000
   H     34.92000000    -5.81000000    45.12000000
   H     33.67000000    -4.70000000    45.33000000
   H     34.91000000    -3.11000000    43.84000000
   H     36.23000000    -4.17000000    43.87000000
   H     35.08000000    -2.84000000    46.36000000
   H     36.56000000    -2.40000000    45.67000000
   H     36.89000000    -4.13000000    47.47000000
   H     35.87000000    -5.11000000    46.60000000
   H     37.31000000    -4.69000000    45.94000000
   N     33.78000000    -8.73000000    41.55000000
   C     34.47000000    -9.80000000    42.23000000
   C     34.15000000   -10.08000000    43.69000000
   O     33.64000000    -9.25000000    44.44000000
   C     35.92000000    -9.90000000    41.77000000
   C     36.27000000    -9.80000000    40.30000000
   O     37.50000000    -9.69000000    40.07000000
   O     35.39000000    -9.94000000    39.43000000
   H     33.11000000    -9.05000000    40.87000000
   H     34.04000000   -10.69000000    41.76000000
   H     36.41000000   -10.74000000    42.28000000
   H     36.44000000    -9.08000000    42.27000000
   N     34.59000000   -11.17000000    44.33000000
   C     34.89000000   -12.49000000    43.81000000
   C     35.86000000   -13.34000000    44.62000000
   O     35.48000000   -13.59000000    45.76000000
   H     34.33000000   -11.18000000    45.30000000
   H     35.21000000   -12.50000000    42.77000000
   H     33.94000000   -13.04000000    43.81000000
   N     36.99000000   -13.82000000    44.10000000
   C     37.68000000   -13.55000000    42.85000000
   C     38.44000000   -12.23000000    42.78000000
   O     38.87000000   -11.83000000    41.70000000
   C     38.67000000   -14.70000000    42.73000000
   C     39.53000000   -14.86000000    43.97000000
   O     40.48000000   -14.09000000    44.21000000
   O     39.24000000   -15.74000000    44.82000000
   H     37.36000000   -14.53000000    44.71000000
   H     36.96000000   -13.64000000    42.04000000
   H     39.28000000   -14.57000000    41.84000000
   H     37.98000000   -15.53000000    42.58000000
   N     38.66000000   -11.57000000    43.91000000
   C     39.10000000   -10.20000000    44.08000000
   C     40.62000000   -10.12000000    43.99000000
   O     41.18000000    -9.12000000    44.44000000
   H     38.31000000   -12.03000000    44.74000000
   H     38.79000000    -9.78000000    45.04000000
   H     38.66000000    -9.53000000    43.34000000
   N     41.37000000   -11.14000000    43.58000000
   C     42.71000000   -11.11000000    43.02000000
   C     42.77000000   -10.36000000    41.69000000
   O     41.93000000   -10.52000000    40.80000000
   C     43.34000000   -12.50000000    42.99000000
   C     44.83000000   -12.38000000    42.69000000
   O     42.62000000   -13.32000000    42.10000000
   H     40.97000000   -12.06000000    43.56000000
   H     43.27000000   -10.44000000    43.68000000
   H     43.26000000   -12.87000000    44.01000000
   H     42.85000000   -14.24000000    42.29000000
   H     45.09000000   -13.44000000    42.66000000
   H     45.03000000   -12.07000000    41.67000000
   H     45.18000000   -11.91000000    43.61000000
   N     43.72000000    -9.44000000    41.59000000
   C     43.84000000    -8.54000000    40.46000000
   C     45.30000000    -8.29000000    40.09000000
   O     45.99000000    -7.44000000    40.66000000
   C     43.01000000    -7.27000000    40.64000000
   C     42.95000000    -6.44000000    39.36000000
   C     43.24000000    -6.43000000    41.89000000
   C     42.01000000    -5.25000000    39.23000000
   H     44.49000000    -9.42000000    42.25000000
   H     43.50000000    -9.14000000    39.62000000
   H     41.98000000    -7.62000000    40.74000000
   H     42.75000000    -7.08000000    38.50000000
   H     43.94000000    -6.07000000    39.08000000
   H     44.21000000    -5.92000000    41.93000000
   H     42.59000000    -5.56000000    41.90000000
   H     43.25000000    -7.03000000    42.80000000
   H     42.12000000    -4.68000000    38.31000000
   H     40.98000000    -5.61000000    39.32000000
   H     42.20000000    -4.56000000    40.05000000
   N     45.70000000    -9.02000000    39.05000000
   C     47.02000000    -8.88000000    38.47000000
   C     46.88000000    -9.09000000    36.97000000
   O     47.96000000    -9.28000000    36.40000000
   C     48.09000000    -9.84000000    39.01000000
   C     47.82000000   -11.33000000    38.86000000
   O     48.19000000    -9.53000000    40.38000000
   H     45.14000000    -9.79000000    38.71000000
   H     47.36000000    -7.85000000    38.52000000
   H     49.06000000    -9.59000000    38.57000000
   H     48.33000000    -8.58000000    40.44000000
   H     47.62000000   -11.62000000    37.83000000
   H     48.69000000   -11.86000000    39.24000000
   H     46.91000000   -11.57000000    39.41000000
   N     45.69000000    -9.16000000    36.38000000
   C     45.49000000    -9.42000000    34.97000000
   C     45.87000000   -10.86000000    34.63000000
   O     46.70000000   -11.48000000    35.29000000
   C     46.09000000    -8.36000000    34.06000000
   C     45.75000000    -6.95000000    34.51000000
   O     45.50000000    -8.47000000    32.78000000
   H     44.85000000    -8.96000000    36.91000000
   H     44.42000000    -9.41000000    34.74000000
   H     47.17000000    -8.55000000    34.09000000
   H     45.91000000    -7.94000000    32.09000000
   H     44.66000000    -6.93000000    34.51000000
   H     46.09000000    -6.63000000    35.49000000
   H     46.28000000    -6.32000000    33.79000000
   N     45.29000000   -11.51000000    33.61000000
   C     45.66000000   -12.83000000    33.14000000
   C     44.55000000   -13.86000000    33.23000000
   O     44.85000000   -15.05000000    33.35000000
   C     46.30000000   -12.82000000    31.76000000
   C     47.50000000   -11.88000000    31.65000000
   C     48.43000000   -12.15000000    30.47000000
   C     47.83000000   -12.30000000    29.07000000
   N     48.87000000   -12.52000000    28.06000000
   H     44.57000000   -11.02000000    33.10000000
   H     46.37000000   -13.13000000    33.92000000
   H     45.56000000   -12.50000000    31.02000000
   H     46.79000000   -13.78000000    31.65000000
   H     48.01000000   -11.93000000    32.61000000
   H     47.04000000   -10.90000000    31.51000000
   H     48.99000000   -13.05000000    30.74000000
   H     49.21000000   -11.39000000    30.48000000
   H     47.27000000   -11.39000000    28.87000000
   H     47.13000000   -13.12000000    28.97000000
   H     49.74000000   -12.06000000    28.29000000
   H     49.05000000   -13.52000000    28.00000000
   H     48.60000000   -12.29000000    27.12000000
   N     43.25000000   -13.57000000    33.08000000
   C     42.42000000   -12.39000000    33.06000000
   C     42.76000000   -11.38000000    31.97000000
   O     42.95000000   -10.20000000    32.25000000
   C     42.10000000   -11.74000000    34.41000000
   C     41.50000000   -12.77000000    35.36000000
   C     40.88000000   -12.04000000    36.54000000
   O     41.45000000   -11.08000000    37.10000000
   O     39.77000000   -12.45000000    36.95000000
   H     42.67000000   -14.39000000    33.23000000
   H     41.45000000   -12.81000000    32.82000000
   H     41.26000000   -11.08000000    34.21000000
   H     42.96000000   -11.16000000    34.74000000
   H     42.26000000   -13.41000000    35.80000000
   H     40.68000000   -13.35000000    34.93000000
   N     42.84000000   -11.79000000    30.70000000
   C     42.75000000   -10.94000000    29.53000000
   H     42.27600000    -9.99700000    29.80200000
   H     43.75100000   -10.74500000    29.14400000
   H     42.15500000   -11.43700000    28.76400000
   H     42.64000000   -12.76000000    30.52000000
  Ca     39.59000000   -11.12300000    39.25000000
   O     37.75000000   -10.04300000    37.44000000
   H     37.89000000    -9.36300000    36.78000000
   H     37.33000000    -9.58300000    38.17000000
   O     41.11000000   -13.23300000    39.60000000
   H     41.30000000   -14.06300000    39.16000000
   H     41.63000000   -13.26300000    40.40000000
   O     40.06000000    -8.64300000    38.63000000
   H     40.91000000    -8.29300000    38.34000000
   H     39.53000000    -7.86300000    38.81000000
   O     37.67000000   -12.96300000    38.89000000
   H     37.95000000   -13.87300000    38.76000000
   H     36.75000000   -13.02300000    39.12000000

Ca 1.00



