%chk=loop2.apoCaM-CA-Ng.Init293.run85.water7.chk
%nprocshared=20
%mem=10GB
%nosave
#b3lyp/svp scf=(tight,noincore,xqc) Test 
#IOP(5/87=12) Density=Current Pop=(MK,readradii) iop(6/33=2) iop(6/42=6)

loop2.apoCaM-CA-Ng.Init293.run85.water7 

   -2  1 
   C     70.22000000   108.01000000     5.41000000
   C     70.34000000   109.46000000     5.86000000
   O     69.43000000   109.97000000     6.52000000
   H     69.40800000   107.92000000     4.68800000
   H     71.15500000   107.69400000     4.94600000
   H     70.01000000   107.37800000     6.27200000
   N     71.43000000   110.09000000     5.44000000
   C     71.66000000   111.50000000     5.68000000
   C     70.53000000   112.39000000     5.17000000
   O     70.15000000   113.33000000     5.87000000
   C     72.96000000   111.98000000     5.04000000
   C     73.32000000   113.46000000     5.10000000
   O     73.78000000   113.87000000     6.19000000
   O     73.29000000   114.17000000     4.07000000
   H     72.14000000   109.61000000     4.90000000
   H     71.65000000   111.62000000     6.76000000
   H     73.00000000   111.63000000     4.01000000
   H     73.79000000   111.44000000     5.49000000
   N     69.92000000   112.08000000     4.03000000
   C     68.96000000   112.83000000     3.25000000
   C     67.86000000   113.53000000     4.05000000
   O     67.61000000   114.72000000     3.94000000
   C     69.76000000   113.62000000     2.22000000
   H     70.31000000   111.30000000     3.52000000
   H     68.47000000   112.01000000     2.73000000
   H     70.19000000   114.46000000     2.76000000
   H     70.48000000   113.01000000     1.66000000
   H     69.07000000   114.01000000     1.48000000
   N     67.20000000   112.74000000     4.90000000
   C     66.04000000   113.22000000     5.61000000
   C     66.29000000   114.33000000     6.62000000
   O     65.42000000   115.08000000     7.06000000
   C     64.82000000   113.26000000     4.68000000
   C     64.67000000   111.94000000     3.94000000
   O     64.27000000   110.94000000     4.58000000
   O     65.09000000   111.88000000     2.76000000
   H     67.62000000   111.83000000     5.05000000
   H     65.81000000   112.34000000     6.22000000
   H     64.93000000   114.04000000     3.93000000
   H     63.93000000   113.40000000     5.29000000
   N     67.55000000   114.43000000     7.05000000
   C     68.05000000   115.62000000     7.71000000
   C     67.69000000   115.69000000     9.19000000
   O     67.37000000   114.68000000     9.82000000
   H     68.21000000   113.91000000     6.49000000
   H     67.46000000   116.41000000     7.27000000
   H     69.12000000   115.81000000     7.58000000
   N     67.75000000   116.89000000     9.77000000
   C     67.24000000   117.30000000    11.06000000
   C     67.66000000   116.53000000    12.30000000
   O     66.93000000   116.50000000    13.29000000
   C     65.76000000   117.67000000    11.00000000
   C     65.29000000   118.57000000     9.87000000
   N     64.78000000   117.97000000     8.79000000
   O     65.60000000   119.76000000     9.91000000
   H     68.21000000   117.64000000     9.27000000
   H     67.69000000   118.28000000    11.24000000
   H     65.49000000   118.21000000    11.91000000
   H     65.28000000   116.69000000    10.98000000
   H     64.57000000   116.99000000     8.91000000
   H     64.31000000   118.62000000     8.18000000
   N     68.84000000   115.89000000    12.23000000
   C     69.46000000   115.07000000    13.25000000
   C     69.90000000   113.68000000    12.79000000
   O     70.58000000   113.00000000    13.54000000
   H     69.40000000   116.22000000    11.46000000
   H     68.96000000   114.95000000    14.21000000
   H     70.38000000   115.58000000    13.52000000
   N     69.51000000   113.27000000    11.57000000
   C     69.80000000   111.98000000    11.00000000
   C     68.67000000   111.00000000    11.26000000
   O     67.53000000   111.45000000    11.31000000
   C     70.12000000   112.00000000     9.50000000
   C     71.21000000   113.02000000     9.23000000
   O     70.51000000   110.77000000     8.92000000
   H     69.01000000   113.96000000    11.03000000
   H     70.69000000   111.64000000    11.54000000
   H     69.26000000   112.29000000     8.90000000
   H     69.91000000   110.65000000     8.18000000
   H     70.96000000   114.01000000     9.61000000
   H     72.11000000   112.57000000     9.66000000
   H     71.35000000   113.27000000     8.17000000
   N     68.95000000   109.70000000    11.39000000
   C     68.01000000   108.61000000    11.21000000
   C     67.05000000   108.86000000    10.06000000
   O     67.52000000   109.01000000     8.93000000
   C     68.76000000   107.29000000    11.14000000
   C     69.59000000   107.00000000    12.39000000
   C     67.68000000   106.22000000    11.03000000
   C     70.58000000   105.85000000    12.23000000
   H     69.93000000   109.45000000    11.42000000
   H     67.43000000   108.69000000    12.13000000
   H     69.45000000   107.28000000    10.29000000
   H     68.91000000   106.77000000    13.21000000
   H     70.17000000   107.88000000    12.66000000
   H     67.31000000   106.27000000    10.00000000
   H     68.06000000   105.22000000    11.26000000
   H     66.85000000   106.38000000    11.72000000
   H     71.34000000   105.82000000    13.01000000
   H     70.12000000   104.86000000    12.19000000
   H     71.12000000   105.90000000    11.28000000
   N     65.74000000   108.82000000    10.33000000
   C     64.73000000   109.02000000     9.31000000
   C     63.45000000   109.68000000     9.80000000
   O     62.43000000   109.08000000    10.10000000
   C     64.43000000   107.68000000     8.65000000
   C     63.45000000   107.91000000     7.51000000
   O     63.79000000   108.75000000     6.64000000
   O     62.37000000   107.27000000     7.52000000
   H     65.47000000   108.71000000    11.30000000
   H     65.18000000   109.71000000     8.60000000
   H     64.04000000   106.92000000     9.33000000
   H     65.30000000   107.23000000     8.16000000
   N     63.58000000   111.00000000    10.02000000
   C     62.67000000   111.86000000    10.74000000
   C     63.40000000   112.95000000    11.50000000
   O     63.14000000   114.14000000    11.30000000
   C     61.68000000   112.36000000     9.69000000
   C     60.38000000   113.03000000    10.09000000
   C     60.30000000   114.43000000    10.16000000
   C     59.30000000   112.32000000    10.60000000
   C     59.13000000   115.09000000    10.57000000
   C     58.21000000   112.99000000    11.17000000
   C     58.06000000   114.38000000    11.12000000
   H     64.47000000   111.36000000     9.72000000
   H     62.05000000   111.31000000    11.45000000
   H     61.43000000   111.52000000     9.05000000
   H     62.21000000   113.08000000     9.06000000
   H     61.13000000   115.00000000     9.78000000
   H     59.36000000   111.24000000    10.62000000
   H     59.13000000   116.17000000    10.53000000
   H     57.34000000   112.36000000    11.32000000
   H     57.22000000   114.90000000    11.56000000
   N     64.16000000   112.66000000    12.56000000
   C     64.67000000   111.35000000    12.93000000
   C     63.68000000   110.28000000    13.34000000
   O     63.91000000   109.10000000    13.08000000
   C     65.72000000   111.51000000    14.02000000
   C     66.05000000   113.00000000    13.96000000
   C     64.77000000   113.64000000    13.43000000
   H     65.19000000   111.01000000    12.03000000
   H     65.33000000   111.21000000    14.99000000
   H     66.61000000   110.89000000    13.91000000
   H     66.28000000   113.44000000    14.93000000
   H     66.89000000   113.05000000    13.27000000
   H     64.21000000   113.76000000    14.35000000
   H     64.99000000   114.54000000    12.86000000
   N     62.72000000   110.59000000    14.21000000
   C     61.82000000   109.80000000    15.03000000
   C     62.57000000   108.68000000    15.73000000
   O     62.37000000   107.52000000    15.37000000
   C     60.61000000   109.35000000    14.21000000
   C     59.84000000   110.50000000    13.57000000
   C     59.16000000   111.27000000    14.70000000
   O     57.94000000   111.07000000    14.92000000
   O     59.79000000   112.20000000    15.24000000
   H     62.55000000   111.57000000    14.39000000
   H     61.56000000   110.40000000    15.90000000
   H     59.90000000   108.87000000    14.89000000
   H     61.01000000   108.75000000    13.40000000
   H     59.09000000   110.18000000    12.85000000
   H     60.51000000   111.18000000    13.04000000
   N     63.39000000   109.04000000    16.72000000
   C     64.12000000   108.09000000    17.54000000
   H     65.03800000   108.55300000    17.90100000
   H     63.50400000   107.79400000    18.39000000
   H     64.36700000   107.21000000    16.94600000
   H     63.65000000   110.00000000    16.86000000
  Ca     64.94000000   108.50300000     4.25000000
   O     63.94000000   106.63300000     2.29000000
   H     63.07000000   106.23300000     2.35000000
   H     64.45000000   106.00300000     1.78000000
   O     64.02000000   109.62300000     1.84000000
   H     64.13000000   110.54300000     2.06000000
   H     64.52000000   109.51300000     1.03000000
   O     64.69000000   105.78300000     4.99000000
   H     64.21000000   105.15300000     4.46000000
   H     65.18000000   105.25300000     5.62000000
   O     66.79000000   108.56300000     6.36000000
   H     66.64000000   108.20300000     7.23000000
   H     67.57000000   109.11300000     6.46000000
   O     67.08000000   107.17300000     3.40000000
   H     67.52000000   106.87300000     2.60000000
   H     67.21000000   106.45300000     4.02000000
   O     62.18000000   108.47300000     4.25000000
   H     61.97000000   108.77300000     5.14000000
   H     61.34000000   108.49300000     3.79000000
   O     67.02000000   110.14300000     3.49000000
   H     67.40000000   109.98300000     2.63000000
   H     66.58000000   110.99300000     3.41000000

Ca 1.00



