%chk=loop1.apoCaM-CA-Ng.Init31.run47.water5.chk
%nprocshared=20
%mem=10GB
%nosave
#b3lyp/svp scf=(tight,noincore,xqc) Test 
#IOP(5/87=12) Density=Current Pop=(MK,readradii) iop(6/33=2) iop(6/42=6)

loop1.apoCaM-CA-Ng.Init31.run47.water5 

   0  1 
   C    100.63000000    54.25000000    32.62000000
   C    101.70000000    55.12000000    33.26000000
   O    102.46000000    54.60000000    34.07000000
   H     99.76300000    54.86300000    32.37300000
   H    101.02500000    53.79700000    31.71100000
   H    100.33300000    53.46600000    33.31700000
   N    101.87000000    56.36000000    32.80000000
   C    102.98000000    57.22000000    33.17000000
   C    102.45000000    58.65000000    33.14000000
   O    101.44000000    59.01000000    32.52000000
   C    104.22000000    57.02000000    32.31000000
   C    105.52000000    57.54000000    32.89000000
   O    105.57000000    58.18000000    33.97000000
   O    106.60000000    57.31000000    32.31000000
   H    101.18000000    56.69000000    32.14000000
   H    103.21000000    57.05000000    34.22000000
   H    104.01000000    57.49000000    31.35000000
   H    104.35000000    55.95000000    32.14000000
   N    103.16000000    59.48000000    33.90000000
   C    102.92000000    60.86000000    34.26000000
   C    102.91000000    61.85000000    33.11000000
   O    102.20000000    62.85000000    33.11000000
   C    103.95000000    61.30000000    35.30000000
   C    103.84000000    60.60000000    36.65000000
   C    102.63000000    60.99000000    37.50000000
   C    102.77000000    60.24000000    38.82000000
   N    101.62000000    60.63000000    39.65000000
   H    103.95000000    59.08000000    34.38000000
   H    101.96000000    60.87000000    34.79000000
   H    103.84000000    62.38000000    35.45000000
   H    104.96000000    61.05000000    34.98000000
   H    104.77000000    60.79000000    37.18000000
   H    103.79000000    59.52000000    36.49000000
   H    101.69000000    60.69000000    37.05000000
   H    102.76000000    62.03000000    37.77000000
   H    103.74000000    60.46000000    39.27000000
   H    102.81000000    59.15000000    38.73000000
   H    101.62000000    60.11000000    40.51000000
   H    101.61000000    61.60000000    39.92000000
   H    100.85000000    60.37000000    39.05000000
   N    103.59000000    61.61000000    31.98000000
   C    104.87000000    60.95000000    31.86000000
   C    105.11000000    60.47000000    30.43000000
   O    104.47000000    60.97000000    29.50000000
   C    105.91000000    62.00000000    32.23000000
   C    107.34000000    61.50000000    32.21000000
   O    107.55000000    60.30000000    32.50000000
   O    108.20000000    62.29000000    31.76000000
   H    103.26000000    62.23000000    31.25000000
   H    104.97000000    60.07000000    32.50000000
   H    105.69000000    62.26000000    33.27000000
   H    105.82000000    62.84000000    31.53000000
   N    105.97000000    59.47000000    30.25000000
   C    105.96000000    58.63000000    29.07000000
   C    106.94000000    57.47000000    28.91000000
   O    106.54000000    56.34000000    28.62000000
   H    106.52000000    59.21000000    31.06000000
   H    106.06000000    59.37000000    28.28000000
   H    104.95000000    58.22000000    29.14000000
   N    108.23000000    57.75000000    29.04000000
   C    109.30000000    56.84000000    28.67000000
   C    109.82000000    57.06000000    27.26000000
   O    109.88000000    58.19000000    26.79000000
   C    110.37000000    56.81000000    29.77000000
   C    109.90000000    56.82000000    31.22000000
   O    109.39000000    55.76000000    31.63000000
   O    109.86000000    57.88000000    31.88000000
   H    108.49000000    58.70000000    29.27000000
   H    108.84000000    55.85000000    28.65000000
   H    110.96000000    57.69000000    29.50000000
   H    110.98000000    55.96000000    29.49000000
   N    110.28000000    56.03000000    26.54000000
   C    110.56000000    54.66000000    26.93000000
   C    111.94000000    54.26000000    27.43000000
   O    112.16000000    53.15000000    27.92000000
   H    110.60000000    56.24000000    25.61000000
   H    110.54000000    54.07000000    26.01000000
   H    109.85000000    54.23000000    27.63000000
   N    112.97000000    55.08000000    27.22000000
   C    114.40000000    54.86000000    27.18000000
   C    114.74000000    53.70000000    26.27000000
   O    115.17000000    52.61000000    26.65000000
   C    115.07000000    54.65000000    28.54000000
   C    114.87000000    55.97000000    29.28000000
   O    116.47000000    54.54000000    28.36000000
   H    112.69000000    56.02000000    26.97000000
   H    114.75000000    55.78000000    26.72000000
   H    114.61000000    53.77000000    28.97000000
   H    116.64000000    53.60000000    28.27000000
   H    115.58000000    55.83000000    30.10000000
   H    115.28000000    56.81000000    28.71000000
   H    113.84000000    56.07000000    29.61000000
   N    114.47000000    53.98000000    24.99000000
   C    114.63000000    53.14000000    23.82000000
   C    116.12000000    52.93000000    23.55000000
   O    116.55000000    53.39000000    22.50000000
   C    113.72000000    51.92000000    23.83000000
   C    112.27000000    52.38000000    23.92000000
   C    113.92000000    51.12000000    22.54000000
   C    111.41000000    51.16000000    24.22000000
   H    114.14000000    54.93000000    24.88000000
   H    114.36000000    53.80000000    22.99000000
   H    113.91000000    51.31000000    24.71000000
   H    111.88000000    52.90000000    23.05000000
   H    112.20000000    53.04000000    24.78000000
   H    113.57000000    51.75000000    21.72000000
   H    114.95000000    51.06000000    22.19000000
   H    113.41000000    50.16000000    22.58000000
   H    110.37000000    51.46000000    24.27000000
   H    111.52000000    50.52000000    23.35000000
   H    111.78000000    50.68000000    25.14000000
   N    116.86000000    52.17000000    24.36000000
   C    118.24000000    51.75000000    24.20000000
   C    118.44000000    50.30000000    24.60000000
   O    117.93000000    49.87000000    25.63000000
   C    119.31000000    52.68000000    24.78000000
   C    119.29000000    52.81000000    26.30000000
   O    119.07000000    54.00000000    24.35000000
   H    116.42000000    51.91000000    25.23000000
   H    118.50000000    51.74000000    23.14000000
   H    120.26000000    52.31000000    24.39000000
   H    119.60000000    54.52000000    24.95000000
   H    118.29000000    53.08000000    26.63000000
   H    119.57000000    51.89000000    26.81000000
   H    119.97000000    53.61000000    26.59000000
   N    119.30000000    49.60000000    23.86000000
   C    119.77000000    48.27000000    24.19000000
   C    120.28000000    48.27000000    25.62000000
   O    121.03000000    49.15000000    26.06000000
   C    120.86000000    48.06000000    23.13000000
   C    121.45000000    46.66000000    23.15000000
   O    120.45000000    48.29000000    21.80000000
   H    119.69000000    50.02000000    23.03000000
   H    118.97000000    47.54000000    24.12000000
   H    121.67000000    48.77000000    23.26000000
   H    121.22000000    48.15000000    21.25000000
   H    122.18000000    46.54000000    23.94000000
   H    120.71000000    45.86000000    23.08000000
   H    122.09000000    46.45000000    22.29000000
   N    119.94000000    47.29000000    26.45000000
   C    120.16000000    47.04000000    27.86000000
   C    119.92000000    48.30000000    28.69000000
   O    120.68000000    48.58000000    29.62000000
   C    121.54000000    46.42000000    28.06000000
   C    121.61000000    45.01000000    27.49000000
   C    122.94000000    44.27000000    27.66000000
   C    123.34000000    43.74000000    29.03000000
   N    122.70000000    42.47000000    29.40000000
   H    119.37000000    46.60000000    25.99000000
   H    119.37000000    46.37000000    28.21000000
   H    121.80000000    46.49000000    29.12000000
   H    122.26000000    47.01000000    27.50000000
   H    121.50000000    45.03000000    26.41000000
   H    120.82000000    44.41000000    27.94000000
   H    123.69000000    44.98000000    27.30000000
   H    122.93000000    43.44000000    26.96000000
   H    123.04000000    44.49000000    29.76000000
   H    124.43000000    43.72000000    29.06000000
   H    123.01000000    42.09000000    30.28000000
   H    121.70000000    42.60000000    29.46000000
   H    122.83000000    41.75000000    28.70000000
   N    118.82000000    49.03000000    28.53000000
   C    118.31000000    49.99000000    29.48000000
   C    117.11000000    50.76000000    28.94000000
   O    117.17000000    51.99000000    29.02000000
   C    117.93000000    49.34000000    30.81000000
   C    117.35000000    50.31000000    31.83000000
   C    117.24000000    49.74000000    33.23000000
   O    118.02000000    48.83000000    33.58000000
   O    116.32000000    50.09000000    34.01000000
   H    118.43000000    49.01000000    27.60000000
   H    119.12000000    50.68000000    29.73000000
   H    118.85000000    49.02000000    31.29000000
   H    117.20000000    48.53000000    30.78000000
   H    116.31000000    50.43000000    31.54000000
   H    117.76000000    51.32000000    31.71000000
   N    116.08000000    50.25000000    28.27000000
   C    115.87000000    48.90000000    27.78000000
   H    114.99900000    48.88300000    27.12400000
   H    116.74900000    48.57400000    27.22400000
   H    115.70200000    48.22900000    28.62200000
   H    115.40000000    50.91000000    27.92000000
  Ca    108.32300000    58.24000000    34.04000000
   O    107.55300000    55.54000000    34.49000000
   H    107.88300000    54.66000000    34.69000000
   H    107.21300000    55.48000000    33.60000000
   O    108.22300000    57.46000000    36.52000000
   H    109.16300000    57.36000000    36.65000000
   H    107.87300000    57.63000000    37.40000000
   O    107.35300000    60.20000000    35.83000000
   H    107.28300000    61.16000000    35.82000000
   H    107.19300000    59.95000000    36.73000000
   O    110.57300000    56.71000000    34.88000000
   H    111.43300000    56.86000000    35.28000000
   H    110.73300000    56.05000000    34.21000000
   O    110.26300000    60.09000000    34.33000000
   H    110.06300000    60.99000000    34.10000000
   H    111.18300000    59.97000000    34.07000000

Ca 1.00



