%chk=loop1.holoCaM.run91.water2.chk
%nprocshared=20
%mem=10GB
%nosave
#b3lyp/svp scf=(tight,noincore,xqc) Test 
#IOP(5/87=12) Density=Current Pop=(MK,readradii) iop(6/33=2) iop(6/42=6)

loop1.holoCaM.run91.water2 

   0  1 
   C     46.87000000    84.77000000    37.14000000
   C     45.40000000    84.57000000    37.45000000
   O     44.47000000    85.27000000    37.05000000
   H     47.45900000    84.03000000    37.68200000
   H     47.03500000    84.65200000    36.06900000
   H     47.17400000    85.77100000    37.44700000
   N     45.06000000    83.61000000    38.32000000
   C     43.79000000    83.50000000    39.01000000
   C     43.80000000    84.36000000    40.26000000
   O     44.13000000    83.96000000    41.38000000
   C     43.48000000    82.05000000    39.37000000
   C     42.10000000    81.96000000    40.01000000
   O     41.83000000    80.81000000    40.42000000
   O     41.38000000    82.97000000    40.16000000
   H     45.82000000    83.07000000    38.69000000
   H     42.93000000    83.89000000    38.47000000
   H     44.29000000    81.62000000    39.96000000
   H     43.37000000    81.52000000    38.42000000
   N     43.59000000    85.65000000    39.98000000
   C     43.64000000    86.74000000    40.93000000
   C     42.79000000    86.58000000    42.18000000
   O     43.08000000    87.25000000    43.17000000
   C     43.30000000    88.09000000    40.31000000
   C     44.09000000    88.62000000    39.11000000
   C     43.71000000    90.07000000    38.86000000
   C     44.79000000    90.65000000    37.96000000
   N     44.79000000    92.11000000    37.85000000
   H     43.25000000    85.88000000    39.06000000
   H     44.70000000    86.79000000    41.19000000
   H     43.18000000    88.79000000    41.13000000
   H     42.34000000    87.94000000    39.81000000
   H     43.83000000    88.00000000    38.25000000
   H     45.15000000    88.65000000    39.39000000
   H     43.71000000    90.57000000    39.84000000
   H     42.78000000    90.08000000    38.30000000
   H     44.80000000    90.24000000    36.95000000
   H     45.77000000    90.36000000    38.36000000
   H     45.53000000    92.47000000    37.27000000
   H     43.95000000    92.44000000    37.39000000
   H     44.86000000    92.56000000    38.76000000
   N     41.73000000    85.78000000    42.14000000
   C     40.75000000    85.63000000    43.20000000
   C     40.44000000    84.17000000    43.50000000
   O     39.52000000    83.90000000    44.27000000
   C     39.53000000    86.51000000    42.92000000
   C     38.93000000    86.18000000    41.56000000
   O     38.99000000    85.03000000    41.09000000
   O     38.44000000    87.13000000    40.91000000
   H     41.49000000    85.35000000    41.26000000
   H     41.29000000    86.00000000    44.07000000
   H     39.75000000    87.57000000    43.02000000
   H     38.74000000    86.24000000    43.62000000
   N     41.23000000    83.28000000    42.89000000
   C     41.33000000    81.91000000    43.36000000
   C     40.06000000    81.06000000    43.34000000
   O     39.55000000    80.78000000    44.42000000
   H     41.97000000    83.57000000    42.27000000
   H     41.59000000    81.91000000    44.41000000
   H     42.17000000    81.45000000    42.84000000
   N     39.70000000    80.52000000    42.17000000
   C     38.54000000    79.68000000    41.99000000
   C     38.78000000    78.56000000    40.99000000
   O     37.95000000    77.69000000    40.71000000
   C     37.31000000    80.51000000    41.62000000
   C     37.61000000    81.44000000    40.45000000
   O     38.41000000    81.20000000    39.52000000
   O     37.02000000    82.54000000    40.44000000
   H     40.28000000    80.66000000    41.36000000
   H     38.27000000    79.14000000    42.91000000
   H     37.13000000    81.11000000    42.51000000
   H     36.48000000    79.86000000    41.35000000
   N     39.99000000    78.49000000    40.42000000
   C     40.38000000    77.49000000    39.45000000
   C     39.98000000    77.88000000    38.03000000
   O     39.85000000    76.99000000    37.19000000
   H     40.59000000    79.29000000    40.55000000
   H     39.77000000    76.61000000    39.65000000
   H     41.46000000    77.33000000    39.45000000
   N     39.78000000    79.17000000    37.73000000
   C     39.33000000    79.61000000    36.42000000
   C     39.85000000    81.02000000    36.18000000
   O     39.83000000    81.88000000    37.05000000
   C     37.81000000    79.52000000    36.31000000
   C     37.22000000    78.12000000    36.22000000
   O     37.16000000    80.14000000    37.40000000
   H     39.88000000    79.88000000    38.44000000
   H     39.71000000    79.00000000    35.61000000
   H     37.50000000    80.04000000    35.40000000
   H     37.75000000    80.50000000    38.06000000
   H     37.63000000    77.58000000    35.36000000
   H     37.38000000    77.45000000    37.06000000
   H     36.14000000    78.18000000    36.11000000
   N     40.19000000    81.37000000    34.93000000
   C     40.74000000    82.64000000    34.50000000
   C     39.80000000    83.27000000    33.48000000
   O     39.64000000    82.83000000    32.35000000
   C     42.20000000    82.57000000    34.05000000
   C     43.08000000    82.44000000    35.29000000
   C     42.61000000    83.67000000    33.07000000
   C     44.54000000    82.09000000    35.01000000
   H     40.07000000    80.66000000    34.23000000
   H     40.74000000    83.35000000    35.32000000
   H     42.42000000    81.63000000    33.55000000
   H     42.60000000    81.76000000    36.00000000
   H     43.02000000    83.40000000    35.79000000
   H     42.59000000    84.67000000    33.49000000
   H     43.61000000    83.42000000    32.73000000
   H     41.96000000    83.71000000    32.19000000
   H     45.07000000    82.85000000    34.44000000
   H     45.10000000    81.93000000    35.93000000
   H     44.68000000    81.18000000    34.44000000
   N     39.22000000    84.39000000    33.93000000
   C     38.42000000    85.29000000    33.13000000
   C     39.15000000    86.35000000    32.33000000
   O     40.34000000    86.63000000    32.49000000
   C     37.36000000    85.93000000    34.02000000
   C     36.39000000    84.92000000    34.63000000
   O     38.04000000    86.67000000    35.01000000
   H     39.29000000    84.67000000    34.90000000
   H     37.89000000    84.72000000    32.36000000
   H     36.70000000    86.64000000    33.52000000
   H     38.41000000    85.99000000    35.58000000
   H     36.94000000    84.26000000    35.30000000
   H     35.69000000    85.50000000    35.24000000
   H     35.83000000    84.44000000    33.83000000
   N     38.40000000    86.98000000    31.42000000
   C     38.85000000    88.12000000    30.64000000
   C     39.33000000    89.27000000    31.51000000
   O     40.29000000    89.91000000    31.10000000
   C     37.71000000    88.65000000    29.79000000
   C     37.52000000    87.79000000    28.55000000
   O     36.47000000    88.73000000    30.47000000
   H     37.50000000    86.62000000    31.13000000
   H     39.65000000    87.88000000    29.94000000
   H     37.95000000    89.65000000    29.43000000
   H     36.00000000    89.47000000    30.08000000
   H     36.73000000    88.14000000    27.88000000
   H     38.39000000    87.91000000    27.90000000
   H     37.49000000    86.74000000    28.84000000
   N     38.77000000    89.52000000    32.70000000
   C     39.23000000    90.54000000    33.63000000
   C     40.64000000    90.30000000    34.15000000
   O     41.49000000    91.19000000    34.16000000
   C     38.20000000    90.57000000    34.76000000
   C     38.54000000    91.70000000    35.73000000
   C     37.45000000    92.05000000    36.74000000
   C     37.70000000    93.39000000    37.42000000
   N     36.68000000    93.72000000    38.43000000
   H     37.95000000    88.99000000    32.97000000
   H     39.18000000    91.50000000    33.13000000
   H     38.29000000    89.68000000    35.38000000
   H     37.24000000    90.91000000    34.39000000
   H     38.73000000    92.63000000    35.19000000
   H     39.44000000    91.50000000    36.32000000
   H     37.31000000    91.28000000    37.50000000
   H     36.51000000    92.06000000    36.19000000
   H     37.57000000    94.11000000    36.61000000
   H     38.72000000    93.42000000    37.82000000
   H     35.76000000    93.84000000    38.02000000
   H     36.62000000    92.98000000    39.12000000
   H     36.81000000    94.66000000    38.77000000
   N     40.89000000    89.04000000    34.50000000
   C     42.16000000    88.49000000    34.92000000
   C     43.23000000    88.55000000    33.85000000
   O     44.38000000    88.91000000    34.10000000
   C     41.90000000    87.17000000    35.64000000
   C     40.89000000    87.23000000    36.78000000
   C     40.51000000    85.88000000    37.37000000
   O     39.51000000    85.32000000    36.88000000
   O     41.09000000    85.39000000    38.36000000
   H     40.11000000    88.39000000    34.45000000
   H     42.52000000    89.21000000    35.66000000
   H     42.84000000    86.94000000    36.13000000
   H     41.61000000    86.38000000    34.94000000
   H     39.99000000    87.80000000    36.53000000
   H     41.36000000    87.92000000    37.49000000
   N     42.89000000    88.18000000    32.61000000
   C     43.78000000    88.27000000    31.47000000
   H     44.74300000    87.82900000    31.72600000
   H     43.34700000    87.73100000    30.62700000
   H     43.92000000    89.31700000    31.19900000
   H     41.94000000    87.88000000    32.44000000
  Ca     39.19000000    83.73000000    39.00000000
   O     37.25000000    85.96000000    38.94000000
   H     37.64000000    86.41000000    39.69000000
   H     36.31000000    85.97000000    39.13000000
   O     36.84000000    83.12000000    37.62000000
   H     36.44000000    82.49000000    37.02000000
   H     36.17000000    83.29000000    38.28000000

Ca 1.00



