%chk=loop1.holoCaM-CaMKII.run34.water2.chk
%nprocshared=20
%mem=10GB
%nosave
#b3lyp/svp scf=(tight,noincore,xqc) Test 
#IOP(5/87=12) Density=Current Pop=(MK,readradii) iop(6/33=2) iop(6/42=6)

loop1.holoCaM-CaMKII.run34.water2 

   0  1 
   C     85.91000000    46.19000000    14.71000000
   C     85.95000000    46.24000000    13.19000000
   O     85.40000000    45.30000000    12.61000000
   H     85.03200000    46.72700000    15.06800000
   H     85.85900000    45.15200000    15.03900000
   H     86.80900000    46.65600000    15.11300000
   N     86.57000000    47.18000000    12.47000000
   C     86.59000000    47.09000000    11.02000000
   C     87.69000000    46.10000000    10.65000000
   O     88.86000000    46.42000000    10.48000000
   C     86.80000000    48.50000000    10.49000000
   C     86.91000000    48.69000000     8.98000000
   O     87.38000000    49.79000000     8.63000000
   O     86.67000000    47.73000000     8.21000000
   H     86.99000000    48.00000000    12.89000000
   H     85.62000000    46.73000000    10.70000000
   H     87.80000000    48.79000000    10.80000000
   H     86.04000000    49.10000000    10.99000000
   N     87.31000000    44.82000000    10.52000000
   C     88.27000000    43.75000000    10.32000000
   C     89.00000000    43.71000000     8.98000000
   O     90.13000000    43.22000000     8.95000000
   C     87.65000000    42.38000000    10.59000000
   C     87.09000000    42.24000000    12.00000000
   C     88.03000000    41.93000000    13.16000000
   C     87.16000000    41.64000000    14.39000000
   N     87.91000000    41.19000000    15.57000000
   H     86.36000000    44.60000000    10.78000000
   H     89.06000000    43.83000000    11.06000000
   H     88.44000000    41.64000000    10.48000000
   H     86.87000000    42.23000000     9.84000000
   H     86.38000000    41.43000000    11.85000000
   H     86.56000000    43.15000000    12.27000000
   H     88.60000000    42.82000000    13.41000000
   H     88.62000000    41.05000000    12.89000000
   H     86.44000000    40.87000000    14.12000000
   H     86.62000000    42.50000000    14.78000000
   H     88.39000000    41.97000000    16.01000000
   H     87.32000000    40.87000000    16.32000000
   H     88.59000000    40.48000000    15.36000000
   N     88.33000000    44.08000000     7.89000000
   C     88.83000000    44.18000000     6.53000000
   C     89.41000000    45.54000000     6.19000000
   O     89.87000000    45.75000000     5.07000000
   C     87.83000000    43.71000000     5.48000000
   C     86.39000000    44.16000000     5.73000000
   O     86.06000000    45.16000000     6.39000000
   O     85.50000000    43.45000000     5.21000000
   H     87.42000000    44.48000000     8.02000000
   H     89.67000000    43.52000000     6.33000000
   H     87.79000000    42.63000000     5.39000000
   H     88.13000000    44.04000000     4.48000000
   N     89.36000000    46.50000000     7.11000000
   C     90.00000000    47.80000000     7.04000000
   C     89.60000000    48.65000000     5.85000000
   O     90.50000000    49.13000000     5.15000000
   H     88.88000000    46.30000000     7.98000000
   H     91.08000000    47.66000000     7.15000000
   H     89.63000000    48.26000000     7.96000000
   N     88.31000000    48.94000000     5.65000000
   C     87.88000000    49.86000000     4.63000000
   C     87.54000000    51.27000000     5.10000000
   O     87.10000000    52.16000000     4.38000000
   C     86.71000000    49.11000000     4.00000000
   C     85.52000000    48.85000000     4.90000000
   O     85.36000000    49.28000000     6.06000000
   O     84.76000000    47.95000000     4.45000000
   H     87.63000000    48.62000000     6.33000000
   H     88.66000000    49.95000000     3.87000000
   H     86.99000000    48.16000000     3.54000000
   H     86.36000000    49.70000000     3.15000000
   N     87.65000000    51.46000000     6.42000000
   C     87.21000000    52.57000000     7.24000000
   C     85.78000000    52.61000000     7.76000000
   O     85.31000000    53.71000000     8.04000000
   H     87.92000000    50.60000000     6.87000000
   H     87.35000000    53.39000000     6.54000000
   H     87.91000000    52.77000000     8.05000000
   N     85.06000000    51.49000000     7.89000000
   C     83.64000000    51.42000000     8.19000000
   C     83.18000000    50.14000000     8.88000000
   O     83.86000000    49.14000000     8.65000000
   C     82.73000000    51.51000000     6.97000000
   C     82.56000000    52.89000000     6.35000000
   O     83.27000000    50.78000000     5.89000000
   H     85.58000000    50.63000000     7.85000000
   H     83.51000000    52.20000000     8.94000000
   H     81.75000000    51.12000000     7.25000000
   H     84.10000000    50.42000000     6.19000000
   H     81.77000000    53.41000000     6.89000000
   H     83.47000000    53.49000000     6.31000000
   H     82.10000000    52.92000000     5.36000000
   N     82.05000000    50.12000000     9.59000000
   C     81.66000000    49.05000000    10.50000000
   C     80.23000000    48.68000000    10.15000000
   O     79.40000000    49.58000000    10.24000000
   C     81.82000000    49.49000000    11.95000000
   C     83.29000000    49.66000000    12.31000000
   C     81.08000000    48.53000000    12.88000000
   C     83.65000000    50.36000000    13.62000000
   H     81.61000000    51.00000000     9.80000000
   H     82.26000000    48.16000000    10.33000000
   H     81.33000000    50.46000000    12.03000000
   H     83.82000000    50.11000000    11.46000000
   H     83.79000000    48.69000000    12.30000000
   H     81.36000000    48.65000000    13.93000000
   H     80.00000000    48.57000000    12.73000000
   H     81.40000000    47.52000000    12.63000000
   H     84.71000000    50.59000000    13.59000000
   H     83.13000000    51.31000000    13.68000000
   H     83.26000000    49.68000000    14.38000000
   N     80.00000000    47.46000000     9.66000000
   C     78.73000000    46.82000000     9.37000000
   C     78.01000000    46.16000000    10.54000000
   O     78.65000000    45.85000000    11.54000000
   C     78.83000000    45.78000000     8.26000000
   C     79.44000000    46.30000000     6.96000000
   O     79.58000000    44.69000000     8.75000000
   H     80.74000000    46.82000000     9.44000000
   H     78.07000000    47.60000000     9.00000000
   H     77.81000000    45.49000000     8.02000000
   H     80.45000000    45.09000000     8.72000000
   H     79.69000000    45.42000000     6.36000000
   H     78.65000000    46.95000000     6.57000000
   H     80.34000000    46.84000000     7.24000000
   N     76.71000000    45.85000000    10.46000000
   C     76.00000000    45.05000000    11.44000000
   C     76.76000000    43.82000000    11.92000000
   O     76.70000000    43.62000000    13.13000000
   C     74.64000000    44.66000000    10.88000000
   C     73.62000000    45.79000000    10.75000000
   O     74.83000000    44.12000000     9.59000000
   H     76.33000000    46.06000000     9.55000000
   H     75.85000000    45.68000000    12.32000000
   H     74.33000000    43.97000000    11.66000000
   H     74.20000000    43.43000000     9.39000000
   H     72.62000000    45.47000000    10.44000000
   H     73.39000000    46.20000000    11.73000000
   H     74.00000000    46.63000000    10.16000000
   N     77.41000000    43.07000000    11.03000000
   C     78.15000000    41.86000000    11.33000000
   C     79.59000000    41.92000000    11.81000000
   O     80.08000000    41.06000000    12.54000000
   C     78.04000000    40.88000000    10.17000000
   C     78.64000000    41.49000000     8.90000000
   C     78.56000000    40.48000000     7.76000000
   C     79.08000000    41.20000000     6.51000000
   N     79.40000000    40.20000000     5.49000000
   H     77.34000000    43.26000000    10.04000000
   H     77.65000000    41.38000000    12.16000000
   H     77.01000000    40.71000000     9.85000000
   H     78.45000000    39.89000000    10.38000000
   H     79.65000000    41.78000000     9.17000000
   H     78.10000000    42.39000000     8.61000000
   H     77.54000000    40.12000000     7.68000000
   H     79.20000000    39.63000000     7.97000000
   H     79.95000000    41.77000000     6.84000000
   H     78.33000000    41.91000000     6.17000000
   H     79.44000000    40.68000000     4.60000000
   H     80.25000000    39.66000000     5.57000000
   H     78.62000000    39.56000000     5.36000000
   N     80.10000000    43.14000000    11.62000000
   C     81.34000000    43.56000000    12.24000000
   C     81.14000000    43.90000000    13.71000000
   O     81.92000000    43.49000000    14.56000000
   C     82.03000000    44.64000000    11.41000000
   C     82.71000000    44.00000000    10.20000000
   C     83.11000000    45.13000000     9.26000000
   O     82.26000000    45.91000000     8.79000000
   O     84.30000000    45.21000000     8.87000000
   H     79.52000000    43.78000000    11.11000000
   H     82.04000000    42.73000000    12.27000000
   H     82.81000000    45.02000000    12.08000000
   H     81.28000000    45.35000000    11.07000000
   H     82.01000000    43.32000000     9.70000000
   H     83.56000000    43.36000000    10.43000000
   N     80.13000000    44.73000000    13.98000000
   C     79.72000000    45.09000000    15.32000000
   H     78.68900000    44.77400000    15.48100000
   H     80.36800000    44.59700000    16.04400000
   H     79.79200000    46.17000000    15.44500000
   H     79.64000000    45.13000000    13.19000000
  Ca     84.40000000    47.00000000     7.01000000
   O     82.13000000    48.39000000     6.28000000
   H     82.20000000    49.32000000     6.06000000
   H     81.48000000    48.05000000     5.66000000
   O     82.60000000    45.49000000     5.35000000
   H     82.91000000    44.91000000     4.66000000
   H     81.99000000    46.09000000     4.92000000

Ca 1.00



