%chk=loop1.holoCaM-CaMKII.run23.water2.chk
%nprocshared=20
%mem=10GB
%nosave
#b3lyp/svp scf=(tight,noincore,xqc) Test 
#IOP(5/87=12) Density=Current Pop=(MK,readradii) iop(6/33=2) iop(6/42=6)

loop1.holoCaM-CaMKII.run23.water2 

   0  1 
   C     85.52000000    48.39000000    15.07000000
   C     86.65000000    47.51000000    14.55000000
   O     86.35000000    46.80000000    13.59000000
   H     84.63600000    47.77800000    15.24700000
   H     85.82700000    48.86300000    16.00300000
   H     85.28800000    49.15800000    14.33200000
   N     87.87000000    47.59000000    15.09000000
   C     89.00000000    46.80000000    14.66000000
   C     88.76000000    45.35000000    15.09000000
   O     88.92000000    45.00000000    16.25000000
   C     90.35000000    47.36000000    15.08000000
   C     91.57000000    46.59000000    14.59000000
   O     92.67000000    46.84000000    15.11000000
   O     91.39000000    45.66000000    13.77000000
   H     88.06000000    48.20000000    15.88000000
   H     89.06000000    46.76000000    13.57000000
   H     90.48000000    47.42000000    16.16000000
   H     90.34000000    48.37000000    14.66000000
   N     88.44000000    44.43000000    14.18000000
   C     87.90000000    43.11000000    14.46000000
   C     88.92000000    41.98000000    14.56000000
   O     88.57000000    40.88000000    14.97000000
   C     86.86000000    42.83000000    13.37000000
   C     85.78000000    41.86000000    13.82000000
   C     85.05000000    42.22000000    15.11000000
   C     84.75000000    43.70000000    15.29000000
   N     83.65000000    43.87000000    16.26000000
   H     88.47000000    44.73000000    13.22000000
   H     87.46000000    43.24000000    15.44000000
   H     87.32000000    42.29000000    12.55000000
   H     86.41000000    43.78000000    13.08000000
   H     86.23000000    40.88000000    13.99000000
   H     85.05000000    41.79000000    13.01000000
   H     85.66000000    41.99000000    15.98000000
   H     84.12000000    41.65000000    15.18000000
   H     84.34000000    43.96000000    14.32000000
   H     85.64000000    44.28000000    15.52000000
   H     83.28000000    44.80000000    16.43000000
   H     82.93000000    43.28000000    15.88000000
   H     83.94000000    43.49000000    17.15000000
   N     90.17000000    42.21000000    14.15000000
   C     91.34000000    41.36000000    14.26000000
   C     92.49000000    41.95000000    15.07000000
   O     93.53000000    41.33000000    15.28000000
   C     91.87000000    40.89000000    12.90000000
   C     92.00000000    41.81000000    11.70000000
   O     91.99000000    41.42000000    10.51000000
   O     92.11000000    43.02000000    12.02000000
   H     90.28000000    43.16000000    13.83000000
   H     90.93000000    40.50000000    14.78000000
   H     91.07000000    40.20000000    12.63000000
   H     92.84000000    40.43000000    13.04000000
   N     92.34000000    43.18000000    15.56000000
   C     93.21000000    43.86000000    16.49000000
   C     94.64000000    44.07000000    16.00000000
   O     95.55000000    44.02000000    16.82000000
   H     91.50000000    43.67000000    15.29000000
   H     93.35000000    43.48000000    17.51000000
   H     92.88000000    44.86000000    16.74000000
   N     94.84000000    44.33000000    14.71000000
   C     96.12000000    44.74000000    14.17000000
   C     96.57000000    46.16000000    14.51000000
   O     97.77000000    46.42000000    14.51000000
   C     96.14000000    44.51000000    12.66000000
   C     94.90000000    45.02000000    11.94000000
   O     94.60000000    44.53000000    10.83000000
   O     94.19000000    45.93000000    12.41000000
   H     94.00000000    44.56000000    14.19000000
   H     96.91000000    44.11000000    14.57000000
   H     96.25000000    43.44000000    12.52000000
   H     97.05000000    44.92000000    12.22000000
   N     95.61000000    47.07000000    14.64000000
   C     95.72000000    48.46000000    15.05000000
   C     95.18000000    49.39000000    13.97000000
   O     95.61000000    50.54000000    13.96000000
   H     94.68000000    46.68000000    14.63000000
   H     96.72000000    48.75000000    15.37000000
   H     95.06000000    48.65000000    15.89000000
   N     94.39000000    48.91000000    13.01000000
   C     93.80000000    49.68000000    11.93000000
   C     92.37000000    49.23000000    11.62000000
   O     92.04000000    48.07000000    11.82000000
   C     94.68000000    49.85000000    10.70000000
   C     95.89000000    50.74000000    10.97000000
   O     95.17000000    48.63000000    10.18000000
   H     94.27000000    47.91000000    13.00000000
   H     93.62000000    50.70000000    12.27000000
   H     94.06000000    50.41000000    10.00000000
   H     95.89000000    48.78000000     9.56000000
   H     95.56000000    51.62000000    11.52000000
   H     96.53000000    50.20000000    11.67000000
   H     96.34000000    50.87000000     9.99000000
   N     91.55000000    50.10000000    11.02000000
   C     90.22000000    49.74000000    10.58000000
   C     90.14000000    49.82000000     9.07000000
   O     90.26000000    50.91000000     8.50000000
   C     89.13000000    50.45000000    11.40000000
   C     89.38000000    50.82000000    12.85000000
   C     87.83000000    49.65000000    11.40000000
   C     88.57000000    52.00000000    13.37000000
   H     91.82000000    51.07000000    10.96000000
   H     90.02000000    48.68000000    10.72000000
   H     88.96000000    51.43000000    10.95000000
   H     90.44000000    51.03000000    13.03000000
   H     89.18000000    49.98000000    13.51000000
   H     88.07000000    48.69000000    11.85000000
   H     87.04000000    50.24000000    11.87000000
   H     87.57000000    49.41000000    10.37000000
   H     88.63000000    52.14000000    14.45000000
   H     89.13000000    52.85000000    12.97000000
   H     87.55000000    52.04000000    12.99000000
   N     89.86000000    48.68000000     8.43000000
   C     89.52000000    48.59000000     7.03000000
   C     88.14000000    49.19000000     6.81000000
   O     87.33000000    49.24000000     7.73000000
   C     89.47000000    47.17000000     6.47000000
   C     90.83000000    46.49000000     6.50000000
   O     88.61000000    46.33000000     7.21000000
   H     89.93000000    47.81000000     8.94000000
   H     90.12000000    49.34000000     6.51000000
   H     89.16000000    47.28000000     5.44000000
   H     89.05000000    46.08000000     8.02000000
   H     91.55000000    47.26000000     6.22000000
   H     90.96000000    46.09000000     7.51000000
   H     90.86000000    45.61000000     5.85000000
   N     87.90000000    49.59000000     5.56000000
   C     86.57000000    49.90000000     5.09000000
   C     85.59000000    48.74000000     5.18000000
   O     84.38000000    48.97000000     5.15000000
   C     86.62000000    50.29000000     3.62000000
   C     85.42000000    51.23000000     3.44000000
   O     87.77000000    51.06000000     3.37000000
   H     88.61000000    49.50000000     4.84000000
   H     86.20000000    50.72000000     5.71000000
   H     86.52000000    49.49000000     2.88000000
   H     87.61000000    51.68000000     2.65000000
   H     85.23000000    51.46000000     2.39000000
   H     84.48000000    50.91000000     3.88000000
   H     85.73000000    52.23000000     3.74000000
   N     86.07000000    47.49000000     5.21000000
   C     85.37000000    46.23000000     5.37000000
   C     84.89000000    46.00000000     6.79000000
   O     83.73000000    45.66000000     7.02000000
   C     86.09000000    45.04000000     4.75000000
   C     85.32000000    43.73000000     4.85000000
   C     83.97000000    43.75000000     4.13000000
   C     84.02000000    44.03000000     2.63000000
   N     82.62000000    44.14000000     2.18000000
   H     87.06000000    47.37000000     5.05000000
   H     84.39000000    46.37000000     4.90000000
   H     86.99000000    44.92000000     5.36000000
   H     86.35000000    45.26000000     3.71000000
   H     85.27000000    43.49000000     5.91000000
   H     85.88000000    42.95000000     4.35000000
   H     83.41000000    44.49000000     4.70000000
   H     83.48000000    42.79000000     4.32000000
   H     84.57000000    43.27000000     2.08000000
   H     84.49000000    44.99000000     2.46000000
   H     82.54000000    44.14000000     1.17000000
   H     81.97000000    43.47000000     2.56000000
   H     82.39000000    45.04000000     2.57000000
   N     85.73000000    46.34000000     7.78000000
   C     85.43000000    46.35000000     9.20000000
   C     84.41000000    47.45000000     9.42000000
   O     83.49000000    47.36000000    10.23000000
   C     86.72000000    46.45000000    10.00000000
   C     87.56000000    45.17000000    10.03000000
   C     88.98000000    45.45000000    10.50000000
   O     89.67000000    46.27000000     9.86000000
   O     89.55000000    44.75000000    11.36000000
   H     86.58000000    46.79000000     7.47000000
   H     85.03000000    45.35000000     9.41000000
   H     86.43000000    46.66000000    11.03000000
   H     87.29000000    47.26000000     9.54000000
   H     87.62000000    44.74000000     9.03000000
   H     87.00000000    44.43000000    10.59000000
   N     84.61000000    48.59000000     8.75000000
   C     83.75000000    49.74000000     8.94000000
   H     82.81100000    49.42000000     9.39100000
   H     84.24200000    50.45800000     9.59700000
   H     83.54900000    50.20700000     7.97600000
   H     85.33000000    48.58000000     8.05000000
  Ca     92.06000000    45.47000000    11.06000000
   O     91.70000000    43.76000000     9.15000000
   H     91.47000000    43.52000000     8.25000000
   H     91.68000000    42.93000000     9.63000000
   O     93.48000000    46.67000000     9.02000000
   H     94.02000000    47.28000000     9.54000000
   H     93.83000000    46.74000000     8.13000000

Ca 1.00



