%chk=loop4.holoCaM.run3.water1.chk
%nprocshared=20
%mem=10GB
%nosave
#b3lyp/svp scf=(tight,noincore,xqc) Test 
#IOP(5/87=12) Density=Current Pop=(MK,readradii) iop(6/33=2) iop(6/42=6)

loop4.holoCaM.run3.water1 

   -3  1 
   C     34.36000000    26.32000000    49.06000000
   C     35.79000000    26.30000000    49.58000000
   O     36.73000000    26.15000000    48.79000000
   H     33.74500000    26.94000000    49.71300000
   H     34.34600000    26.73100000    48.05000000
   H     33.96400000    25.30500000    49.04600000
   N     35.96000000    26.44000000    50.89000000
   C     37.22000000    26.28000000    51.59000000
   C     37.49000000    24.78000000    51.69000000
   O     36.78000000    23.95000000    52.24000000
   C     37.20000000    26.90000000    52.98000000
   C     38.33000000    26.38000000    53.86000000
   O     39.50000000    26.50000000    53.44000000
   O     38.16000000    25.82000000    54.96000000
   H     35.15000000    26.62000000    51.47000000
   H     38.02000000    26.65000000    50.95000000
   H     36.22000000    26.82000000    53.47000000
   H     37.28000000    27.98000000    52.86000000
   N     38.65000000    24.43000000    51.12000000
   C     39.17000000    23.08000000    51.13000000
   C     40.28000000    22.73000000    52.11000000
   O     40.35000000    21.62000000    52.63000000
   C     39.60000000    22.59000000    49.74000000
   C     40.93000000    23.01000000    49.13000000
   C     38.49000000    22.95000000    48.76000000
   C     41.38000000    22.01000000    48.07000000
   H     39.14000000    25.16000000    50.62000000
   H     38.35000000    22.44000000    51.44000000
   H     39.57000000    21.51000000    49.85000000
   H     41.63000000    22.90000000    49.96000000
   H     40.89000000    24.04000000    48.79000000
   H     38.61000000    22.57000000    47.75000000
   H     37.56000000    22.45000000    49.04000000
   H     38.29000000    24.02000000    48.66000000
   H     42.31000000    22.30000000    47.57000000
   H     41.40000000    21.03000000    48.54000000
   H     40.66000000    21.92000000    47.25000000
   N     41.08000000    23.70000000    52.57000000
   C     42.21000000    23.43000000    53.43000000
   C     41.94000000    23.51000000    54.93000000
   O     42.83000000    23.13000000    55.68000000
   C     43.36000000    24.27000000    52.88000000
   C     43.07000000    25.77000000    52.87000000
   O     42.93000000    26.46000000    51.84000000
   O     42.63000000    26.33000000    53.90000000
   H     40.90000000    24.66000000    52.34000000
   H     42.55000000    22.40000000    53.34000000
   H     43.55000000    23.94000000    51.86000000
   H     44.19000000    24.04000000    53.54000000
   N     40.77000000    24.06000000    55.25000000
   C     40.29000000    24.13000000    56.62000000
   C     40.35000000    25.48000000    57.32000000
   O     39.97000000    25.52000000    58.49000000
   H     40.16000000    24.44000000    54.54000000
   H     40.90000000    23.50000000    57.28000000
   H     39.27000000    23.77000000    56.74000000
   N     40.67000000    26.63000000    56.72000000
   C     40.69000000    27.84000000    57.51000000
   C     39.37000000    28.60000000    57.55000000
   O     39.19000000    29.64000000    58.19000000
   C     41.84000000    28.79000000    57.21000000
   C     41.79000000    29.24000000    55.75000000
   O     40.80000000    29.06000000    55.01000000
   O     42.79000000    29.77000000    55.24000000
   H     40.77000000    26.72000000    55.72000000
   H     40.99000000    27.57000000    58.52000000
   H     42.73000000    28.20000000    57.42000000
   H     41.97000000    29.62000000    57.90000000
   N     38.42000000    28.07000000    56.78000000
   C     37.15000000    28.74000000    56.66000000
   C     37.01000000    29.93000000    55.72000000
   O     35.96000000    30.57000000    55.69000000
   H     38.60000000    27.15000000    56.40000000
   H     36.78000000    29.13000000    57.61000000
   H     36.42000000    28.03000000    56.28000000
   N     38.13000000    30.35000000    55.13000000
   C     38.17000000    31.43000000    54.16000000
   C     38.54000000    30.88000000    52.79000000
   O     39.34000000    29.96000000    52.66000000
   C     39.24000000    32.42000000    54.62000000
   C     38.74000000    33.44000000    55.63000000
   C     39.85000000    34.31000000    56.19000000
   N     39.52000000    35.38000000    56.92000000
   O     41.02000000    33.98000000    56.00000000
   H     38.97000000    29.83000000    55.32000000
   H     37.16000000    31.81000000    54.05000000
   H     39.47000000    33.07000000    53.77000000
   H     40.09000000    31.92000000    55.08000000
   H     38.24000000    33.02000000    56.50000000
   H     38.01000000    34.08000000    55.14000000
   H     38.56000000    35.66000000    57.01000000
   H     40.25000000    35.64000000    57.58000000
   N     38.07000000    31.48000000    51.69000000
   C     38.58000000    31.19000000    50.36000000
   C     39.59000000    32.25000000    49.95000000
   O     39.26000000    33.44000000    49.91000000
   C     37.53000000    30.89000000    49.30000000
   C     36.79000000    29.59000000    49.61000000
   C     36.55000000    32.02000000    48.98000000
   H     37.42000000    32.24000000    51.86000000
   H     39.15000000    30.26000000    50.40000000
   H     38.05000000    30.74000000    48.36000000
   H     36.26000000    29.38000000    48.68000000
   H     37.53000000    28.82000000    49.83000000
   H     36.06000000    29.70000000    50.42000000
   H     35.96000000    32.27000000    49.86000000
   H     37.05000000    32.91000000    48.60000000
   H     35.94000000    31.74000000    48.13000000
   N     40.77000000    31.81000000    49.52000000
   C     41.68000000    32.57000000    48.69000000
   C     41.32000000    32.51000000    47.21000000
   O     40.43000000    31.75000000    46.82000000
   C     43.12000000    32.18000000    49.03000000
   C     43.71000000    31.00000000    48.26000000
   N     43.28000000    29.75000000    48.41000000
   O     44.63000000    31.20000000    47.47000000
   H     40.92000000    30.81000000    49.54000000
   H     41.55000000    33.61000000    48.98000000
   H     43.05000000    31.91000000    50.08000000
   H     43.81000000    33.02000000    48.95000000
   H     42.53000000    29.51000000    49.05000000
   H     43.65000000    29.06000000    47.76000000
   N     42.02000000    33.22000000    46.33000000
   C     41.83000000    33.17000000    44.89000000
   C     41.73000000    31.74000000    44.37000000
   O     40.91000000    31.46000000    43.50000000
   C     43.07000000    33.86000000    44.33000000
   C     42.92000000    34.14000000    42.85000000
   C     42.18000000    35.26000000    42.46000000
   C     43.59000000    33.42000000    41.85000000
   C     42.08000000    35.60000000    41.11000000
   C     43.51000000    33.76000000    40.50000000
   C     42.67000000    34.82000000    40.10000000
   O     42.68000000    35.28000000    38.81000000
   H     42.83000000    33.77000000    46.58000000
   H     40.86000000    33.54000000    44.56000000
   H     43.98000000    33.27000000    44.41000000
   H     43.18000000    34.81000000    44.85000000
   H     41.63000000    35.85000000    43.18000000
   H     44.14000000    32.53000000    42.13000000
   H     41.50000000    36.42000000    40.70000000
   H     44.06000000    33.18000000    39.77000000
   H     43.16000000    34.71000000    38.21000000
   N     42.68000000    30.86000000    44.69000000
   C     42.75000000    29.50000000    44.19000000
   C     41.64000000    28.59000000    44.68000000
   O     41.63000000    27.38000000    44.42000000
   C     44.12000000    28.97000000    44.61000000
   C     45.29000000    29.49000000    43.78000000
   C     46.65000000    28.98000000    44.21000000
   O     47.37000000    28.40000000    43.37000000
   O     46.95000000    29.04000000    45.43000000
   H     43.38000000    31.22000000    45.32000000
   H     42.72000000    29.56000000    43.10000000
   H     44.23000000    27.89000000    44.46000000
   H     44.28000000    29.24000000    45.65000000
   H     45.31000000    30.57000000    43.68000000
   H     45.10000000    29.22000000    42.74000000
   N     40.73000000    29.10000000    45.51000000
   C     39.49000000    28.46000000    45.93000000
   C     38.28000000    29.18000000    45.35000000
   O     37.35000000    28.52000000    44.89000000
   C     39.43000000    28.47000000    47.45000000
   C     40.35000000    27.43000000    48.07000000
   C     40.51000000    27.83000000    49.53000000
   O     41.03000000    28.91000000    49.87000000
   O     40.10000000    27.08000000    50.43000000
   H     40.88000000    30.03000000    45.87000000
   H     39.48000000    27.41000000    45.63000000
   H     38.42000000    28.16000000    47.71000000
   H     39.62000000    29.47000000    47.85000000
   H     41.35000000    27.54000000    47.64000000
   H     39.94000000    26.42000000    48.02000000
   N     38.30000000    30.51000000    45.24000000
   C     37.22000000    31.26000000    44.63000000
   H     36.38000000    31.31500000    45.32300000
   H     37.56400000    32.26800000    44.39600000
   H     36.90300000    30.76200000    43.71400000
   H     39.08000000    31.03000000    45.62000000
  Ca     41.16000000    28.27000000    52.51000000
   O     43.32000000    30.14000000    52.29000000
   H     43.49000000    30.83000000    52.93000000
   H     44.18000000    29.86000000    52.00000000

Ca 1.00



