%chk=loop3.apoCaM-CA-Ng.Init293.run50.water5.chk
%nprocshared=20
%mem=10GB
%nosave
#b3lyp/svp scf=(tight,noincore,xqc) Test 
#IOP(5/87=12) Density=Current Pop=(MK,readradii) iop(6/33=2) iop(6/42=6)

loop3.apoCaM-CA-Ng.Init293.run50.water5 

   0  1 
   C     59.34000000    67.09000000    73.13000000
   C     60.37000000    65.96000000    73.18000000
   O     61.07000000    65.84000000    74.18000000
   H     58.43900000    66.78300000    73.66200000
   H     59.75400000    67.98100000    73.60200000
   H     59.09100000    67.31000000    72.09200000
   N     60.40000000    65.10000000    72.17000000
   C     61.50000000    64.22000000    71.84000000
   C     60.98000000    62.90000000    71.28000000
   O     59.90000000    62.89000000    70.70000000
   C     62.48000000    64.95000000    70.92000000
   C     63.78000000    64.18000000    70.77000000
   O     64.23000000    63.99000000    69.62000000
   O     64.17000000    63.47000000    71.71000000
   H     59.63000000    65.24000000    71.52000000
   H     62.02000000    64.06000000    72.78000000
   H     62.69000000    65.91000000    71.39000000
   H     62.08000000    65.16000000    69.93000000
   N     61.72000000    61.81000000    71.50000000
   C     61.62000000    60.55000000    70.78000000
   C     61.72000000    60.58000000    69.26000000
   O     62.83000000    60.51000000    68.75000000
   C     60.40000000    59.78000000    71.28000000
   C     60.54000000    59.34000000    72.73000000
   C     59.41000000    58.41000000    73.19000000
   C     59.42000000    57.08000000    72.45000000
   N     60.76000000    56.46000000    72.45000000
   H     62.52000000    61.99000000    72.08000000
   H     62.54000000    60.00000000    70.98000000
   H     60.36000000    58.98000000    70.55000000
   H     59.51000000    60.40000000    71.22000000
   H     60.65000000    60.19000000    73.41000000
   H     61.49000000    58.80000000    72.74000000
   H     58.53000000    59.03000000    73.03000000
   H     59.49000000    58.24000000    74.26000000
   H     58.97000000    57.14000000    71.46000000
   H     58.67000000    56.50000000    73.00000000
   H     61.06000000    56.35000000    73.40000000
   H     60.69000000    55.47000000    72.24000000
   H     61.36000000    56.95000000    71.81000000
   N     60.61000000    60.55000000    68.51000000
   C     60.55000000    60.37000000    67.08000000
   C     59.24000000    60.73000000    66.38000000
   O     58.20000000    60.49000000    66.98000000
   C     60.94000000    58.96000000    66.63000000
   C     60.35000000    57.79000000    67.41000000
   O     60.84000000    57.47000000    68.51000000
   O     59.41000000    57.23000000    66.80000000
   H     59.77000000    60.69000000    69.05000000
   H     61.29000000    61.02000000    66.62000000
   H     62.01000000    58.95000000    66.84000000
   H     60.89000000    58.88000000    65.54000000
   N     59.31000000    61.37000000    65.21000000
   C     58.13000000    61.59000000    64.40000000
   C     57.79000000    60.33000000    63.61000000
   O     58.56000000    59.41000000    63.35000000
   H     60.22000000    61.60000000    64.83000000
   H     58.27000000    62.46000000    63.75000000
   H     57.23000000    61.76000000    64.99000000
   N     56.57000000    60.24000000    63.09000000
   C     56.08000000    59.03000000    62.45000000
   C     55.34000000    59.26000000    61.14000000
   O     54.44000000    58.52000000    60.74000000
   C     55.25000000    58.13000000    63.36000000
   C     55.79000000    58.00000000    64.78000000
   N     55.50000000    58.92000000    65.69000000
   O     56.43000000    57.01000000    65.14000000
   H     55.93000000    61.00000000    63.26000000
   H     56.94000000    58.40000000    62.20000000
   H     55.16000000    57.19000000    62.83000000
   H     54.27000000    58.59000000    63.46000000
   H     54.78000000    59.61000000    65.56000000
   H     56.05000000    58.80000000    66.54000000
   N     55.76000000    60.28000000    60.40000000
   C     55.14000000    60.80000000    59.19000000
   C     53.67000000    61.22000000    59.22000000
   O     53.34000000    62.15000000    59.95000000
   H     56.54000000    60.75000000    60.84000000
   H     55.15000000    60.03000000    58.42000000
   H     55.66000000    61.60000000    58.68000000
   N     52.80000000    60.66000000    58.37000000
   C     51.37000000    60.89000000    58.42000000
   C     50.90000000    60.33000000    59.76000000
   O     49.69000000    60.30000000    59.96000000
   C     50.97000000    62.34000000    58.19000000
   C     51.28000000    62.76000000    56.77000000
   C     50.43000000    62.48000000    55.70000000
   C     52.52000000    63.35000000    56.49000000
   C     50.77000000    62.83000000    54.39000000
   C     52.95000000    63.58000000    55.17000000
   C     52.08000000    63.28000000    54.11000000
   O     52.46000000    63.45000000    52.81000000
   H     53.21000000    60.02000000    57.70000000
   H     50.88000000    60.28000000    57.66000000
   H     51.33000000    63.13000000    58.85000000
   H     49.89000000    62.39000000    58.10000000
   H     49.46000000    62.02000000    55.83000000
   H     53.20000000    63.47000000    57.32000000
   H     50.11000000    62.63000000    53.56000000
   H     53.93000000    63.94000000    54.89000000
   H     53.31000000    63.88000000    52.71000000
   N     51.69000000    59.74000000    60.66000000
   C     51.34000000    59.16000000    61.94000000
   C     50.51000000    57.89000000    61.93000000
   O     50.77000000    56.98000000    62.73000000
   C     50.81000000    60.20000000    62.92000000
   C     51.69000000    61.45000000    62.99000000
   C     50.61000000    59.66000000    64.33000000
   C     53.12000000    61.23000000    63.47000000
   H     52.65000000    59.55000000    60.40000000
   H     52.23000000    58.76000000    62.42000000
   H     49.81000000    60.49000000    62.58000000
   H     51.19000000    62.15000000    63.67000000
   H     51.69000000    61.92000000    62.00000000
   H     50.43000000    60.53000000    64.97000000
   H     49.89000000    58.85000000    64.43000000
   H     51.51000000    59.18000000    64.70000000
   H     53.48000000    62.21000000    63.78000000
   H     53.15000000    60.49000000    64.27000000
   H     53.74000000    61.04000000    62.60000000
   N     49.52000000    57.69000000    61.05000000
   C     48.83000000    56.42000000    60.96000000
   C     47.99000000    55.99000000    62.15000000
   O     47.72000000    54.81000000    62.36000000
   C     47.98000000    56.47000000    59.69000000
   O     47.36000000    57.73000000    59.56000000
   H     49.14000000    58.47000000    60.54000000
   H     49.57000000    55.62000000    60.84000000
   H     47.19000000    55.72000000    59.70000000
   H     48.56000000    56.32000000    58.78000000
   H     46.86000000    57.64000000    58.74000000
   N     47.48000000    56.93000000    62.95000000
   C     46.93000000    56.72000000    64.28000000
   C     47.79000000    55.83000000    65.17000000
   O     47.22000000    55.07000000    65.95000000
   C     45.46000000    56.30000000    64.27000000
   H     47.61000000    57.86000000    62.59000000
   H     46.77000000    57.62000000    64.86000000
   H     45.33000000    55.41000000    63.66000000
   H     45.12000000    55.96000000    65.25000000
   H     44.82000000    57.08000000    63.86000000
   N     49.12000000    55.78000000    65.09000000
   C     49.96000000    54.81000000    65.77000000
   C     50.91000000    55.42000000    66.79000000
   O     51.19000000    56.62000000    66.77000000
   C     50.69000000    54.03000000    64.68000000
   H     49.58000000    56.55000000    64.62000000
   H     49.37000000    54.10000000    66.36000000
   H     49.94000000    53.58000000    64.03000000
   H     51.41000000    54.67000000    64.17000000
   H     51.33000000    53.26000000    65.11000000
   N     51.44000000    54.64000000    67.73000000
   C     52.36000000    55.04000000    68.77000000
   C     51.91000000    56.18000000    69.67000000
   O     52.72000000    56.74000000    70.40000000
   C     53.76000000    55.30000000    68.23000000
   C     54.40000000    54.02000000    67.70000000
   C     55.79000000    54.30000000    67.13000000
   O     56.60000000    55.10000000    67.63000000
   O     56.20000000    53.75000000    66.09000000
   H     51.02000000    53.72000000    67.72000000
   H     52.37000000    54.22000000    69.49000000
   H     54.49000000    55.63000000    68.98000000
   H     53.72000000    56.02000000    67.42000000
   H     53.77000000    53.43000000    67.04000000
   H     54.64000000    53.46000000    68.61000000
   N     50.60000000    56.40000000    69.75000000
   C     49.95000000    57.58000000    70.28000000
   H     48.96800000    57.31000000    70.66800000
   H     50.55500000    57.99900000    71.08400000
   H     49.83600000    58.32000000    69.48700000
   H     49.99000000    55.70000000    69.33000000
  Ca     58.36000000    55.26000000    65.60000000
   O     60.96000000    55.00000000    65.37000000
   H     61.45000000    54.59000000    66.07000000
   H     61.40000000    54.73000000    64.56000000
   O     59.01000000    52.68000000    65.07000000
   H     58.56000000    52.18000000    64.39000000
   H     59.68000000    52.08000000    65.41000000
   O     57.20000000    54.10000000    63.41000000
   H     57.05000000    53.15000000    63.36000000
   H     57.06000000    54.41000000    62.52000000
   O     59.07000000    56.65000000    63.43000000
   H     59.07000000    57.58000000    63.20000000
   H     59.45000000    56.22000000    62.66000000
   O     59.44000000    54.08000000    67.72000000
   H     59.92000000    53.29000000    67.99000000
   H     59.53000000    54.67000000    68.47000000

Ca 1.00



