%chk=loop1.holoCaM.run85.water2.chk
%nprocshared=20
%mem=10GB
%nosave
#b3lyp/svp scf=(tight,noincore,xqc) Test 
#IOP(5/87=12) Density=Current Pop=(MK,readradii) iop(6/33=2) iop(6/42=6)

loop1.holoCaM.run85.water2 

   0  1 
   C     41.94000000    88.40000000    51.06000000
   C     40.71000000    88.95000000    51.77000000
   O     40.26000000    90.08000000    51.56000000
   H     42.78000000    88.37900000    51.75400000
   H     41.73500000    87.38900000    50.70800000
   H     42.18600000    89.03800000    50.21100000
   N     40.09000000    88.25000000    52.72000000
   C     39.14000000    88.89000000    53.61000000
   C     39.82000000    89.87000000    54.56000000
   O     40.78000000    89.48000000    55.23000000
   C     38.42000000    87.76000000    54.34000000
   C     37.16000000    88.19000000    55.06000000
   O     36.89000000    89.41000000    55.19000000
   O     36.70000000    87.32000000    55.83000000
   H     40.58000000    87.46000000    53.11000000
   H     38.54000000    89.52000000    52.95000000
   H     39.07000000    87.19000000    55.00000000
   H     38.05000000    87.14000000    53.52000000
   N     39.33000000    91.10000000    54.68000000
   C     39.93000000    92.23000000    55.37000000
   C     39.40000000    92.42000000    56.78000000
   O     40.24000000    92.45000000    57.68000000
   C     39.78000000    93.56000000    54.64000000
   C     40.64000000    93.52000000    53.38000000
   C     40.62000000    94.80000000    52.54000000
   C     41.23000000    95.95000000    53.34000000
   N     41.42000000    97.11000000    52.45000000
   H     38.40000000    91.24000000    54.32000000
   H     41.00000000    92.05000000    55.41000000
   H     40.11000000    94.41000000    55.25000000
   H     38.72000000    93.67000000    54.44000000
   H     40.35000000    92.71000000    52.71000000
   H     41.68000000    93.32000000    53.66000000
   H     39.61000000    95.04000000    52.22000000
   H     41.23000000    94.60000000    51.66000000
   H     42.15000000    95.65000000    53.83000000
   H     40.59000000    96.29000000    54.15000000
   H     42.29000000    97.09000000    51.93000000
   H     40.60000000    97.20000000    51.87000000
   H     41.39000000    97.98000000    52.96000000
   N     38.08000000    92.33000000    56.99000000
   C     37.32000000    92.41000000    58.22000000
   C     37.07000000    91.04000000    58.83000000
   O     36.81000000    91.08000000    60.03000000
   C     36.01000000    93.14000000    57.94000000
   C     35.12000000    92.85000000    56.74000000
   O     34.30000000    93.68000000    56.28000000
   O     35.37000000    91.83000000    56.06000000
   H     37.52000000    92.19000000    56.16000000
   H     37.88000000    92.92000000    59.02000000
   H     36.29000000    94.19000000    57.82000000
   H     35.35000000    93.08000000    58.79000000
   N     37.05000000    89.93000000    58.08000000
   C     37.07000000    88.61000000    58.67000000
   C     35.76000000    87.85000000    58.70000000
   O     35.74000000    86.77000000    59.28000000
   H     37.23000000    90.10000000    57.10000000
   H     37.40000000    88.76000000    59.70000000
   H     37.81000000    88.18000000    57.99000000
   N     34.74000000    88.31000000    57.96000000
   C     33.41000000    87.75000000    57.89000000
   C     33.38000000    86.50000000    57.03000000
   O     32.29000000    86.00000000    56.73000000
   C     32.30000000    88.77000000    57.63000000
   C     32.52000000    89.50000000    56.30000000
   O     33.33000000    89.12000000    55.43000000
   O     31.73000000    90.43000000    56.04000000
   H     34.80000000    89.14000000    57.40000000
   H     33.12000000    87.37000000    58.87000000
   H     32.35000000    89.58000000    58.35000000
   H     31.32000000    88.30000000    57.51000000
   N     34.48000000    85.90000000    56.56000000
   C     34.55000000    84.58000000    55.99000000
   C     34.08000000    84.57000000    54.54000000
   O     33.81000000    83.53000000    53.94000000
   H     35.33000000    86.39000000    56.82000000
   H     33.96000000    83.88000000    56.58000000
   H     35.61000000    84.37000000    55.87000000
   N     33.95000000    85.74000000    53.92000000
   C     33.38000000    86.00000000    52.61000000
   C     34.23000000    87.13000000    52.04000000
   O     34.67000000    87.96000000    52.83000000
   C     31.90000000    86.33000000    52.72000000
   C     30.96000000    85.22000000    53.18000000
   O     31.66000000    87.35000000    53.66000000
   H     34.43000000    86.47000000    54.43000000
   H     33.56000000    85.09000000    52.03000000
   H     31.70000000    86.73000000    51.72000000
   H     31.86000000    86.96000000    54.51000000
   H     29.93000000    85.51000000    52.99000000
   H     31.18000000    84.38000000    52.51000000
   H     31.11000000    84.88000000    54.21000000
   N     34.33000000    87.24000000    50.71000000
   C     34.89000000    88.43000000    50.10000000
   C     34.00000000    89.12000000    49.08000000
   O     33.14000000    88.50000000    48.45000000
   C     36.33000000    88.21000000    49.66000000
   C     36.39000000    87.46000000    48.33000000
   C     37.11000000    87.44000000    50.73000000
   C     37.74000000    87.58000000    47.63000000
   H     33.97000000    86.54000000    50.09000000
   H     34.92000000    89.17000000    50.90000000
   H     36.81000000    89.19000000    49.61000000
   H     35.69000000    87.86000000    47.60000000
   H     36.27000000    86.39000000    48.49000000
   H     38.17000000    87.45000000    50.47000000
   H     37.02000000    87.90000000    51.71000000
   H     36.87000000    86.38000000    50.77000000
   H     38.57000000    87.07000000    48.12000000
   H     37.57000000    87.09000000    46.66000000
   H     38.03000000    88.63000000    47.57000000
   N     34.21000000    90.43000000    48.91000000
   C     33.47000000    91.47000000    48.22000000
   C     34.26000000    91.94000000    47.00000000
   O     35.49000000    92.04000000    47.05000000
   C     33.18000000    92.61000000    49.19000000
   C     32.14000000    92.14000000    50.21000000
   O     34.37000000    93.04000000    49.80000000
   H     34.98000000    90.77000000    49.46000000
   H     32.51000000    91.14000000    47.82000000
   H     32.70000000    93.45000000    48.68000000
   H     34.62000000    92.39000000    50.46000000
   H     31.11000000    92.14000000    49.87000000
   H     32.30000000    91.09000000    50.43000000
   H     32.32000000    92.50000000    51.22000000
   N     33.63000000    92.66000000    46.08000000
   C     34.21000000    93.58000000    45.12000000
   C     35.27000000    94.52000000    45.69000000
   O     36.34000000    94.75000000    45.12000000
   C     33.20000000    94.33000000    44.27000000
   C     32.47000000    93.54000000    43.19000000
   O     32.23000000    94.90000000    45.13000000
   H     32.64000000    92.46000000    46.06000000
   H     34.77000000    92.98000000    44.40000000
   H     33.79000000    95.10000000    43.78000000
   H     31.35000000    94.72000000    44.82000000
   H     31.90000000    92.86000000    43.81000000
   H     32.02000000    94.30000000    42.55000000
   H     33.24000000    92.96000000    42.68000000
   N     34.95000000    95.32000000    46.71000000
   C     35.85000000    96.23000000    47.38000000
   C     37.10000000    95.54000000    47.92000000
   O     38.22000000    95.97000000    47.65000000
   C     35.00000000    97.04000000    48.35000000
   C     33.73000000    97.74000000    47.88000000
   C     32.90000000    98.41000000    48.97000000
   C     31.50000000    98.83000000    48.53000000
   N     30.62000000    99.14000000    49.66000000
   H     33.98000000    95.25000000    46.99000000
   H     36.13000000    96.96000000    46.62000000
   H     35.79000000    97.56000000    48.89000000
   H     34.68000000    96.31000000    49.09000000
   H     32.96000000    97.01000000    47.63000000
   H     33.88000000    98.45000000    47.06000000
   H     33.45000000    99.29000000    49.32000000
   H     32.69000000    97.67000000    49.74000000
   H     31.11000000    98.00000000    47.93000000
   H     31.65000000    99.68000000    47.86000000
   H     30.48000000    98.31000000    50.22000000
   H     30.99000000    99.75000000    50.38000000
   H     29.70000000    99.49000000    49.44000000
   N     36.98000000    94.31000000    48.42000000
   C     38.18000000    93.61000000    48.85000000
   C     38.92000000    93.05000000    47.65000000
   O     40.15000000    93.09000000    47.60000000
   C     37.82000000    92.52000000    49.86000000
   C     37.27000000    93.08000000    51.16000000
   C     36.54000000    92.05000000    52.02000000
   O     35.52000000    91.47000000    51.60000000
   O     36.75000000    91.98000000    53.25000000
   H     36.11000000    93.79000000    48.45000000
   H     38.86000000    94.35000000    49.27000000
   H     38.63000000    91.82000000    50.07000000
   H     36.96000000    91.98000000    49.46000000
   H     36.61000000    93.93000000    50.94000000
   H     38.02000000    93.56000000    51.80000000
   N     38.29000000    92.64000000    46.55000000
   C     38.92000000    92.32000000    45.28000000
   H     39.93000000    91.95100000    45.45900000
   H     38.33900000    91.55300000    44.76900000
   H     38.96500000    93.21600000    44.66000000
   H     37.28000000    92.65000000    46.56000000
  Ca     34.82000000    90.50000000    53.86000000
   O     32.53000000    89.79000000    52.72000000
   H     32.42000000    88.93000000    53.13000000
   H     31.65000000    90.17000000    52.72000000
   O     33.51000000    92.87000000    53.49000000
   H     33.33000000    93.65000000    52.96000000
   H     33.24000000    93.12000000    54.37000000

Ca 1.00



