%chk=loop1.apoCaM-CA-Ng.Init293.run33.water4.chk
%nprocshared=20
%mem=10GB
%nosave
#b3lyp/svp scf=(tight,noincore,xqc) Test 
#IOP(5/87=12) Density=Current Pop=(MK,readradii) iop(6/33=2) iop(6/42=6)

loop1.apoCaM-CA-Ng.Init293.run33.water4 

   0  1 
   C     50.17000000   -11.92000000    26.18000000
   C     50.19000000   -12.62000000    27.54000000
   O     51.17000000   -13.24000000    27.95000000
   H     50.41300000   -10.86500000    26.31100000
   H     50.90600000   -12.38200000    25.52200000
   H     49.17800000   -12.01200000    25.73800000
   N     49.11000000   -12.61000000    28.32000000
   C     48.71000000   -13.14000000    29.61000000
   C     47.50000000   -14.06000000    29.51000000
   O     46.85000000   -14.22000000    30.54000000
   C     48.41000000   -11.96000000    30.54000000
   C     47.51000000   -10.83000000    30.07000000
   O     46.34000000   -10.79000000    30.52000000
   O     47.91000000   -10.10000000    29.14000000
   H     48.33000000   -12.08000000    27.95000000
   H     49.55000000   -13.70000000    30.00000000
   H     49.35000000   -11.53000000    30.87000000
   H     47.94000000   -12.36000000    31.44000000
   N     47.10000000   -14.53000000    28.33000000
   C     45.91000000   -15.30000000    28.01000000
   C     46.09000000   -16.54000000    27.14000000
   O     45.21000000   -16.85000000    26.35000000
   C     44.88000000   -14.34000000    27.41000000
   C     44.61000000   -13.17000000    28.34000000
   C     43.58000000   -12.30000000    27.62000000
   C     43.25000000   -11.21000000    28.64000000
   N     44.18000000   -10.08000000    28.73000000
   H     47.69000000   -14.23000000    27.57000000
   H     45.59000000   -15.68000000    28.98000000
   H     44.01000000   -14.92000000    27.09000000
   H     45.34000000   -13.98000000    26.50000000
   H     45.51000000   -12.59000000    28.53000000
   H     44.27000000   -13.55000000    29.30000000
   H     42.72000000   -12.95000000    27.44000000
   H     43.94000000   -11.89000000    26.68000000
   H     43.28000000   -11.66000000    29.64000000
   H     42.24000000   -10.87000000    28.40000000
   H     44.75000000   -10.16000000    29.56000000
   H     44.85000000   -10.00000000    27.97000000
   H     43.70000000    -9.21000000    28.92000000
   N     47.18000000   -17.30000000    27.03000000
   C     48.50000000   -17.27000000    27.63000000
   C     48.57000000   -17.12000000    29.14000000
   O     47.55000000   -17.11000000    29.84000000
   C     49.44000000   -16.33000000    26.89000000
   C     50.38000000   -16.96000000    25.87000000
   O     50.03000000   -17.41000000    24.75000000
   O     51.59000000   -17.12000000    26.10000000
   H     47.11000000   -17.94000000    26.25000000
   H     48.90000000   -18.28000000    27.47000000
   H     50.03000000   -15.78000000    27.63000000
   H     48.88000000   -15.53000000    26.42000000
   N     49.71000000   -17.14000000    29.83000000
   C     51.05000000   -17.34000000    29.31000000
   C     51.99000000   -17.74000000    30.44000000
   O     51.53000000   -17.72000000    31.58000000
   H     49.62000000   -17.01000000    30.83000000
   H     51.38000000   -16.36000000    28.96000000
   H     51.13000000   -17.95000000    28.41000000
   N     53.22000000   -18.18000000    30.14000000
   C     53.79000000   -18.33000000    28.82000000
   C     55.26000000   -17.95000000    28.81000000
   O     56.13000000   -18.47000000    29.52000000
   C     53.67000000   -19.75000000    28.27000000
   C     54.27000000   -19.92000000    26.88000000
   O     54.81000000   -21.01000000    26.59000000
   O     54.10000000   -18.93000000    26.15000000
   H     53.92000000   -17.99000000    30.85000000
   H     53.22000000   -17.75000000    28.09000000
   H     52.61000000   -20.01000000    28.28000000
   H     54.24000000   -20.41000000    28.92000000
   N     55.59000000   -17.03000000    27.90000000
   C     57.00000000   -16.86000000    27.60000000
   C     57.28000000   -15.97000000    26.39000000
   O     56.47000000   -15.15000000    25.97000000
   H     54.95000000   -16.62000000    27.24000000
   H     57.50000000   -17.82000000    27.47000000
   H     57.47000000   -16.30000000    28.40000000
   N     58.41000000   -16.21000000    25.71000000
   C     58.87000000   -15.67000000    24.45000000
   C     57.94000000   -15.88000000    23.26000000
   O     57.43000000   -16.99000000    23.08000000
   C     60.25000000   -16.24000000    24.14000000
   C     60.34000000   -17.76000000    23.98000000
   O     61.16000000   -15.88000000    25.16000000
   H     59.05000000   -16.84000000    26.17000000
   H     58.89000000   -14.60000000    24.65000000
   H     60.74000000   -15.73000000    23.31000000
   H     61.98000000   -16.14000000    24.74000000
   H     59.56000000   -18.20000000    24.59000000
   H     60.21000000   -18.03000000    22.93000000
   H     61.30000000   -18.16000000    24.31000000
   N     57.84000000   -14.93000000    22.33000000
   C     56.93000000   -14.86000000    21.21000000
   C     57.74000000   -15.23000000    19.98000000
   O     58.66000000   -14.54000000    19.54000000
   C     56.23000000   -13.50000000    21.26000000
   C     55.26000000   -13.48000000    20.08000000
   C     57.27000000   -12.38000000    21.31000000
   C     54.23000000   -12.41000000    20.44000000
   H     58.48000000   -14.16000000    22.43000000
   H     56.25000000   -15.69000000    21.41000000
   H     55.71000000   -13.53000000    22.22000000
   H     54.56000000   -14.32000000    20.05000000
   H     55.75000000   -13.28000000    19.13000000
   H     56.84000000   -11.42000000    21.01000000
   H     57.65000000   -12.22000000    22.32000000
   H     58.16000000   -12.65000000    20.75000000
   H     53.49000000   -12.33000000    19.65000000
   H     53.67000000   -12.62000000    21.35000000
   H     54.73000000   -11.44000000    20.42000000
   N     57.49000000   -16.44000000    19.47000000
   C     58.18000000   -16.93000000    18.29000000
   C     57.33000000   -17.48000000    17.16000000
   O     57.86000000   -17.65000000    16.06000000
   C     59.30000000   -17.88000000    18.69000000
   C     58.96000000   -19.19000000    19.40000000
   O     60.30000000   -17.31000000    19.50000000
   H     56.96000000   -17.05000000    20.08000000
   H     58.69000000   -16.10000000    17.80000000
   H     59.88000000   -18.12000000    17.80000000
   H     60.45000000   -16.38000000    19.31000000
   H     58.43000000   -18.94000000    20.32000000
   H     58.34000000   -19.83000000    18.77000000
   H     59.87000000   -19.75000000    19.59000000
   N     56.01000000   -17.59000000    17.35000000
   C     55.07000000   -17.88000000    16.29000000
   C     54.89000000   -19.36000000    15.96000000
   O     55.88000000   -20.08000000    16.14000000
   C     55.19000000   -16.94000000    15.09000000
   C     55.14000000   -15.52000000    15.64000000
   O     54.10000000   -17.12000000    14.21000000
   H     55.67000000   -17.63000000    18.30000000
   H     54.12000000   -17.71000000    16.79000000
   H     56.15000000   -17.09000000    14.60000000
   H     53.98000000   -16.39000000    13.59000000
   H     54.32000000   -15.39000000    16.34000000
   H     56.16000000   -15.25000000    15.92000000
   H     54.94000000   -14.86000000    14.79000000
   N     53.75000000   -19.89000000    15.52000000
   C     53.51000000   -21.25000000    15.09000000
   C     52.33000000   -21.95000000    15.75000000
   O     52.21000000   -23.15000000    15.56000000
   C     53.41000000   -21.23000000    13.56000000
   C     54.81000000   -21.34000000    12.97000000
   C     54.81000000   -20.72000000    11.57000000
   C     56.21000000   -20.91000000    11.00000000
   N     56.32000000   -20.64000000     9.56000000
   H     53.12000000   -19.12000000    15.33000000
   H     54.41000000   -21.83000000    15.29000000
   H     52.87000000   -20.34000000    13.23000000
   H     52.85000000   -22.15000000    13.41000000
   H     55.06000000   -22.39000000    12.82000000
   H     55.59000000   -20.95000000    13.62000000
   H     54.50000000   -19.68000000    11.65000000
   H     54.02000000   -21.18000000    10.98000000
   H     56.59000000   -21.93000000    11.06000000
   H     56.84000000   -20.22000000    11.57000000
   H     55.80000000   -19.82000000     9.28000000
   H     57.32000000   -20.54000000     9.44000000
   H     56.05000000   -21.51000000     9.12000000
   N     51.39000000   -21.44000000    16.56000000
   C     51.10000000   -20.18000000    17.20000000
   C     50.92000000   -19.01000000    16.24000000
   O     51.57000000   -17.97000000    16.31000000
   C     51.94000000   -19.91000000    18.45000000
   C     51.15000000   -19.08000000    19.46000000
   C     51.79000000   -18.81000000    20.81000000
   O     51.38000000   -19.41000000    21.83000000
   O     52.71000000   -17.97000000    20.93000000
   H     50.71000000   -22.18000000    16.64000000
   H     50.09000000   -20.37000000    17.57000000
   H     52.88000000   -19.41000000    18.24000000
   H     52.17000000   -20.86000000    18.93000000
   H     50.17000000   -19.54000000    19.60000000
   H     51.05000000   -18.09000000    19.01000000
   N     50.07000000   -19.17000000    15.22000000
   C     49.90000000   -18.21000000    14.15000000
   H     49.17700000   -17.45200000    14.45400000
   H     50.85600000   -17.73300000    13.93300000
   H     49.53700000   -18.72000000    13.25800000
   H     49.44000000   -19.97000000    15.20000000
  Ca     52.33000000   -18.55800000    24.15000000
   O     53.99000000   -20.31800000    23.21000000
   H     54.57000000   -20.33800000    22.45000000
   H     54.42000000   -20.88800000    23.85000000
   O     51.69000000   -16.26800000    22.84000000
   H     50.93000000   -15.70800000    23.04000000
   H     52.14000000   -15.80800000    22.13000000
   O     50.95000000   -20.37800000    25.32000000
   H     50.66000000   -20.69800000    26.18000000
   H     50.65000000   -21.03800000    24.70000000
   O     54.62000000   -16.99800000    23.49000000
   H     55.28000000   -17.06800000    22.80000000
   H     54.55000000   -16.05800000    23.66000000

Ca 1.00



