%chk=loop2.apoCaM-CA-Ng.Init295.run41.water5.chk
%nprocshared=20
%mem=10GB
%nosave
#b3lyp/svp scf=(tight,noincore,xqc) Test 
#IOP(5/87=12) Density=Current Pop=(MK,readradii) iop(6/33=2) iop(6/42=6)

loop2.apoCaM-CA-Ng.Init295.run41.water5 

   -2  1 
   C     85.48000000    47.93000000    34.95000000
   C     86.82000000    48.14000000    34.25000000
   O     86.98000000    49.03000000    33.42000000
   H     84.71100000    47.72300000    34.20600000
   H     85.55700000    47.08700000    35.63700000
   H     85.21500000    48.83000000    35.50500000
   N     87.86000000    47.34000000    34.52000000
   C     89.10000000    47.55000000    33.80000000
   C     89.93000000    48.63000000    34.48000000
   O     90.99000000    48.34000000    35.02000000
   C     89.79000000    46.22000000    33.53000000
   C     88.78000000    45.21000000    32.99000000
   O     87.84000000    45.61000000    32.28000000
   O     89.09000000    44.01000000    33.11000000
   H     87.92000000    46.82000000    35.38000000
   H     88.88000000    47.92000000    32.80000000
   H     90.22000000    45.92000000    34.49000000
   H     90.62000000    46.23000000    32.83000000
   N     89.49000000    49.90000000    34.50000000
   C     90.27000000    51.08000000    34.82000000
   C     89.38000000    52.15000000    35.44000000
   O     88.18000000    52.18000000    35.19000000
   C     91.12000000    51.43000000    33.61000000
   H     88.56000000    50.09000000    34.18000000
   H     90.97000000    50.78000000    35.61000000
   H     90.47000000    51.59000000    32.75000000
   H     91.73000000    52.30000000    33.85000000
   H     91.76000000    50.59000000    33.34000000
   N     89.83000000    53.11000000    36.26000000
   C     91.23000000    53.38000000    36.52000000
   C     91.68000000    53.16000000    37.96000000
   O     90.90000000    53.38000000    38.88000000
   C     91.61000000    54.79000000    36.09000000
   C     90.92000000    55.49000000    34.92000000
   O     90.37000000    56.61000000    35.03000000
   O     90.85000000    54.85000000    33.85000000
   H     89.17000000    53.85000000    36.42000000
   H     91.92000000    52.74000000    35.96000000
   H     92.65000000    54.73000000    35.76000000
   H     91.56000000    55.43000000    36.97000000
   N     92.97000000    52.94000000    38.21000000
   C     93.61000000    52.77000000    39.50000000
   C     93.30000000    51.39000000    40.07000000
   O     93.60000000    50.37000000    39.46000000
   H     93.60000000    52.90000000    37.43000000
   H     93.29000000    53.54000000    40.21000000
   H     94.69000000    52.77000000    39.34000000
   N     92.77000000    51.17000000    41.27000000
   C     92.65000000    52.10000000    42.37000000
   C     91.22000000    52.59000000    42.58000000
   O     90.88000000    53.03000000    43.67000000
   C     93.14000000    51.26000000    43.55000000
   C     94.52000000    50.67000000    43.28000000
   N     95.63000000    51.40000000    43.33000000
   O     94.58000000    49.56000000    42.75000000
   H     92.58000000    50.20000000    41.49000000
   H     93.34000000    52.94000000    42.27000000
   H     92.38000000    50.54000000    43.82000000
   H     93.27000000    51.92000000    44.41000000
   H     95.54000000    52.35000000    43.66000000
   H     96.50000000    51.00000000    42.98000000
   N     90.31000000    52.40000000    41.63000000
   C     88.90000000    52.67000000    41.82000000
   C     88.64000000    54.15000000    41.60000000
   O     87.88000000    54.73000000    42.38000000
   H     90.56000000    52.05000000    40.71000000
   H     88.54000000    52.38000000    42.81000000
   H     88.31000000    52.21000000    41.03000000
   N     89.30000000    54.80000000    40.63000000
   C     88.96000000    56.12000000    40.16000000
   C     87.90000000    56.01000000    39.07000000
   O     88.13000000    55.37000000    38.04000000
   C     90.19000000    56.78000000    39.56000000
   C     90.00000000    58.28000000    39.32000000
   O     91.28000000    56.66000000    40.44000000
   H     89.90000000    54.21000000    40.07000000
   H     88.56000000    56.81000000    40.91000000
   H     90.38000000    56.25000000    38.63000000
   H     91.98000000    56.84000000    39.81000000
   H     90.63000000    58.60000000    38.50000000
   H     88.95000000    58.45000000    39.10000000
   H     90.24000000    58.76000000    40.27000000
   N     86.73000000    56.57000000    39.38000000
   C     85.49000000    56.53000000    38.63000000
   C     84.73000000    57.84000000    38.78000000
   O     84.97000000    58.56000000    39.75000000
   C     84.70000000    55.27000000    38.98000000
   C     85.30000000    53.89000000    38.76000000
   C     84.24000000    55.29000000    40.44000000
   C     85.66000000    53.64000000    37.30000000
   H     86.67000000    57.02000000    40.28000000
   H     85.67000000    56.47000000    37.56000000
   H     83.81000000    55.31000000    38.35000000
   H     84.54000000    53.14000000    38.99000000
   H     86.21000000    53.84000000    39.35000000
   H     83.69000000    56.23000000    40.53000000
   H     83.54000000    54.49000000    40.66000000
   H     85.12000000    55.26000000    41.08000000
   H     84.87000000    53.12000000    36.76000000
   H     85.83000000    54.60000000    36.82000000
   H     86.56000000    53.03000000    37.17000000
   N     83.87000000    58.20000000    37.82000000
   C     83.13000000    59.45000000    37.83000000
   C     81.69000000    59.36000000    37.34000000
   O     81.42000000    58.66000000    36.36000000
   C     83.83000000    60.50000000    36.99000000
   C     84.52000000    60.08000000    35.70000000
   O     85.70000000    59.69000000    35.79000000
   O     83.91000000    59.97000000    34.61000000
   H     83.93000000    57.75000000    36.92000000
   H     83.10000000    59.90000000    38.82000000
   H     84.60000000    60.99000000    37.59000000
   H     83.14000000    61.32000000    36.79000000
   N     80.75000000    60.12000000    37.91000000
   C     79.37000000    59.99000000    37.48000000
   C     78.88000000    58.56000000    37.31000000
   O     79.05000000    57.78000000    38.24000000
   C     78.45000000    60.67000000    38.50000000
   C     76.96000000    60.61000000    38.28000000
   C     76.22000000    59.56000000    38.84000000
   C     76.28000000    61.59000000    37.55000000
   C     74.92000000    59.27000000    38.43000000
   C     75.00000000    61.24000000    37.08000000
   C     74.32000000    60.09000000    37.47000000
   H     80.98000000    60.58000000    38.78000000
   H     79.23000000    60.50000000    36.53000000
   H     78.81000000    61.69000000    38.63000000
   H     78.74000000    60.23000000    39.46000000
   H     76.79000000    58.96000000    39.54000000
   H     76.75000000    62.52000000    37.28000000
   H     74.38000000    58.38000000    38.72000000
   H     74.55000000    61.99000000    36.44000000
   H     73.31000000    59.96000000    37.11000000
   N     78.21000000    58.12000000    36.25000000
   C     77.52000000    56.85000000    36.11000000
   C     78.37000000    55.63000000    36.40000000
   O     77.81000000    54.54000000    36.52000000
   C     76.87000000    56.89000000    34.74000000
   C     76.73000000    58.37000000    34.38000000
   C     77.98000000    58.92000000    35.06000000
   H     76.72000000    56.86000000    36.85000000
   H     77.50000000    56.33000000    34.05000000
   H     75.90000000    56.39000000    34.78000000
   H     76.79000000    58.42000000    33.29000000
   H     75.79000000    58.79000000    34.73000000
   H     78.85000000    58.83000000    34.41000000
   H     77.69000000    59.94000000    35.31000000
   N     79.70000000    55.75000000    36.35000000
   C     80.61000000    54.62000000    36.34000000
   C     80.50000000    53.79000000    37.61000000
   O     80.58000000    52.57000000    37.45000000
   C     82.01000000    55.16000000    36.04000000
   C     82.15000000    55.59000000    34.59000000
   C     83.53000000    56.21000000    34.38000000
   O     84.03000000    56.18000000    33.24000000
   O     84.08000000    56.95000000    35.23000000
   H     80.14000000    56.62000000    36.09000000
   H     80.32000000    53.90000000    35.57000000
   H     82.75000000    54.37000000    36.10000000
   H     82.32000000    55.94000000    36.74000000
   H     81.37000000    56.32000000    34.37000000
   H     82.04000000    54.70000000    33.97000000
   N     80.22000000    54.32000000    38.80000000
   C     80.08000000    53.48000000    39.97000000
   H     79.03100000    53.21500000    40.10300000
   H     80.66900000    52.57200000    39.83900000
   H     80.43300000    54.01900000    40.84900000
   H     80.11000000    55.33000000    38.79000000
  Ca     85.90000000    58.22000000    33.71000000
   O     86.95000000    55.99000000    34.93000000
   H     87.64000000    55.38000000    34.66000000
   H     86.65000000    55.66000000    35.77000000
   O     84.44000000    59.34000000    31.59000000
   H     84.17000000    60.25000000    31.70000000
   H     84.68000000    59.27000000    30.67000000
   O     86.83000000    56.63000000    31.82000000
   H     87.01000000    56.40000000    30.91000000
   H     87.25000000    55.94000000    32.33000000
   O     86.93000000    60.54000000    32.73000000
   H     86.60000000    61.43000000    32.71000000
   H     87.41000000    60.43000000    31.91000000
   O     88.38000000    58.49000000    34.65000000
   H     88.99000000    57.77000000    34.86000000
   H     88.80000000    59.27000000    35.02000000

Ca 1.00



