%chk=loop3.holoCaM-CaMKII.run26.water2.chk
%nprocshared=20
%mem=10GB
%nosave
#b3lyp/svp scf=(tight,noincore,xqc) Test 
#IOP(5/87=12) Density=Current Pop=(MK,readradii) iop(6/33=2) iop(6/42=6)

loop3.holoCaM-CaMKII.run26.water2 

   0  1 
   C     79.16000000    55.09000000    35.95000000
   C     78.70000000    54.38000000    37.21000000
   O     79.35000000    53.44000000    37.67000000
   H     80.18300000    54.79400000    35.72000000
   H     78.50800000    54.81700000    35.12000000
   H     79.12100000    56.16800000    36.10500000
   N     77.57000000    54.81000000    37.78000000
   C     76.95000000    54.18000000    38.93000000
   C     76.27000000    52.91000000    38.46000000
   O     75.32000000    52.99000000    37.68000000
   C     76.05000000    55.18000000    39.65000000
   C     75.24000000    54.54000000    40.77000000
   O     75.46000000    53.38000000    41.19000000
   O     74.44000000    55.25000000    41.43000000
   H     77.06000000    55.51000000    37.26000000
   H     77.79000000    53.96000000    39.60000000
   H     75.28000000    55.64000000    39.03000000
   H     76.73000000    55.86000000    40.16000000
   N     76.76000000    51.79000000    38.99000000
   C     76.42000000    50.44000000    38.57000000
   C     75.15000000    49.89000000    39.21000000
   O     74.80000000    48.76000000    38.88000000
   C     77.63000000    49.53000000    38.78000000
   C     77.53000000    48.25000000    37.96000000
   C     78.81000000    47.45000000    38.16000000
   C     78.77000000    46.21000000    37.28000000
   N     77.98000000    45.14000000    37.91000000
   H     77.48000000    52.02000000    39.66000000
   H     76.25000000    50.47000000    37.50000000
   H     77.75000000    49.27000000    39.83000000
   H     78.57000000    50.04000000    38.55000000
   H     77.14000000    48.42000000    36.95000000
   H     76.74000000    47.67000000    38.45000000
   H     78.85000000    47.19000000    39.22000000
   H     79.60000000    48.14000000    37.88000000
   H     79.76000000    45.76000000    37.14000000
   H     78.42000000    46.45000000    36.28000000
   H     77.05000000    45.49000000    38.09000000
   H     77.93000000    44.35000000    37.28000000
   H     78.37000000    44.90000000    38.80000000
   N     74.57000000    50.46000000    40.27000000
   C     73.46000000    49.97000000    41.07000000
   C     72.39000000    51.04000000    41.02000000
   O     71.20000000    50.74000000    41.04000000
   C     74.03000000    49.58000000    42.44000000
   C     73.80000000    50.60000000    43.55000000
   O     74.35000000    51.71000000    43.43000000
   O     73.06000000    50.24000000    44.49000000
   H     74.91000000    51.38000000    40.50000000
   H     72.96000000    49.09000000    40.66000000
   H     75.10000000    49.39000000    42.35000000
   H     73.51000000    48.65000000    42.65000000
   N     72.79000000    52.31000000    40.88000000
   C     71.82000000    53.38000000    40.78000000
   C     71.39000000    53.96000000    42.12000000
   O     70.28000000    54.47000000    42.21000000
   H     73.75000000    52.62000000    40.92000000
   H     70.89000000    53.03000000    40.33000000
   H     72.16000000    54.26000000    40.24000000
   N     72.21000000    53.88000000    43.17000000
   C     71.99000000    54.48000000    44.47000000
   C     72.23000000    55.98000000    44.51000000
   O     71.74000000    56.65000000    45.42000000
   C     72.85000000    53.78000000    45.51000000
   C     74.31000000    54.20000000    45.59000000
   N     74.80000000    54.48000000    46.80000000
   O     74.96000000    54.45000000    44.58000000
   H     73.11000000    53.45000000    43.01000000
   H     70.94000000    54.30000000    44.71000000
   H     72.90000000    52.72000000    45.28000000
   H     72.32000000    53.99000000    46.45000000
   H     74.22000000    54.54000000    47.62000000
   H     75.78000000    54.73000000    46.86000000
   N     73.00000000    56.50000000    43.55000000
   C     73.28000000    57.90000000    43.31000000
   C     74.74000000    58.23000000    43.57000000
   O     75.07000000    59.41000000    43.66000000
   H     73.39000000    55.85000000    42.89000000
   H     72.60000000    58.51000000    43.92000000
   H     73.07000000    58.08000000    42.26000000
   N     75.58000000    57.20000000    43.59000000
   C     76.97000000    57.33000000    44.00000000
   C     77.84000000    56.41000000    43.16000000
   O     77.48000000    55.26000000    42.93000000
   C     77.20000000    57.10000000    45.49000000
   C     76.42000000    57.87000000    46.53000000
   C     77.11000000    58.87000000    47.24000000
   C     75.05000000    57.70000000    46.77000000
   C     76.48000000    59.65000000    48.21000000
   C     74.39000000    58.49000000    47.72000000
   C     75.11000000    59.44000000    48.48000000
   O     74.56000000    60.25000000    49.43000000
   H     75.23000000    56.29000000    43.34000000
   H     77.21000000    58.38000000    43.83000000
   H     78.27000000    57.20000000    45.67000000
   H     77.02000000    56.06000000    45.77000000
   H     78.16000000    59.03000000    47.06000000
   H     74.49000000    57.06000000    46.11000000
   H     77.00000000    60.35000000    48.84000000
   H     73.34000000    58.40000000    47.92000000
   H     73.62000000    60.07000000    49.48000000
   N     79.04000000    56.88000000    42.81000000
   C     80.09000000    56.10000000    42.17000000
   C     81.15000000    55.70000000    43.18000000
   O     81.49000000    56.50000000    44.04000000
   C     80.62000000    56.87000000    40.96000000
   C     79.41000000    57.23000000    40.10000000
   C     81.63000000    56.06000000    40.15000000
   C     79.66000000    58.37000000    39.12000000
   H     79.23000000    57.80000000    43.17000000
   H     79.65000000    55.19000000    41.76000000
   H     81.16000000    57.76000000    41.30000000
   H     78.51000000    57.57000000    40.61000000
   H     79.11000000    56.36000000    39.53000000
   H     82.52000000    56.11000000    40.77000000
   H     81.34000000    55.04000000    39.92000000
   H     81.91000000    56.66000000    39.28000000
   H     79.78000000    59.31000000    39.67000000
   H     80.50000000    58.15000000    38.46000000
   H     78.78000000    58.51000000    38.50000000
   N     81.62000000    54.45000000    43.16000000
   C     82.63000000    53.88000000    44.02000000
   C     83.82000000    53.38000000    43.21000000
   O     83.88000000    53.46000000    41.98000000
   C     82.04000000    52.69000000    44.78000000
   O     81.45000000    51.77000000    43.90000000
   H     81.32000000    53.85000000    42.41000000
   H     82.94000000    54.60000000    44.78000000
   H     81.26000000    53.09000000    45.42000000
   H     82.79000000    52.14000000    45.35000000
   H     80.99000000    51.07000000    44.38000000
   N     84.88000000    52.91000000    43.87000000
   C     86.12000000    52.56000000    43.21000000
   C     85.97000000    51.28000000    42.39000000
   O     86.44000000    51.14000000    41.26000000
   C     87.26000000    52.39000000    44.21000000
   H     84.78000000    52.70000000    44.85000000
   H     86.33000000    53.38000000    42.52000000
   H     87.42000000    53.22000000    44.89000000
   H     86.94000000    51.53000000    44.79000000
   H     88.23000000    52.19000000    43.76000000
   N     85.29000000    50.26000000    42.90000000
   C     84.82000000    49.13000000    42.12000000
   C     84.00000000    49.53000000    40.90000000
   O     84.26000000    49.01000000    39.82000000
   C     84.03000000    48.29000000    43.12000000
   H     84.79000000    50.49000000    43.75000000
   H     85.65000000    48.56000000    41.72000000
   H     84.74000000    47.73000000    43.74000000
   H     83.36000000    48.82000000    43.80000000
   H     83.53000000    47.52000000    42.54000000
   N     82.99000000    50.39000000    41.05000000
   C     82.09000000    50.72000000    39.96000000
   C     82.72000000    51.59000000    38.88000000
   O     82.60000000    51.26000000    37.70000000
   C     80.83000000    51.40000000    40.49000000
   C     80.05000000    50.43000000    41.37000000
   C     78.88000000    51.19000000    41.96000000
   O     78.33000000    50.79000000    43.01000000
   O     78.33000000    52.16000000    41.38000000
   H     82.74000000    50.69000000    41.98000000
   H     81.78000000    49.79000000    39.49000000
   H     80.18000000    51.63000000    39.64000000
   H     81.00000000    52.33000000    41.04000000
   H     80.66000000    50.04000000    42.19000000
   H     79.72000000    49.54000000    40.82000000
   N     83.62000000    52.50000000    39.26000000
   C     84.44000000    53.25000000    38.33000000
   H     85.41300000    52.76900000    38.23500000
   H     83.95200000    53.27800000    37.35600000
   H     84.57300000    54.26700000    38.70000000
   H     83.76000000    52.62000000    40.26000000
  Ca     76.68000000    52.78000000    43.28000000
   O     78.72000000    53.23000000    45.10000000
   H     78.80000000    53.48000000    46.02000000
   H     79.57000000    52.86000000    44.87000000
   O     76.44000000    51.21000000    45.50000000
   H     77.05000000    51.14000000    46.24000000
   H     75.73000000    50.61000000    45.73000000

Ca 1.00



