%chk=loop3.apoCaM-CA-Ng.Init31.run90.water5.chk
%nprocshared=20
%mem=10GB
%nosave
#b3lyp/svp scf=(tight,noincore,xqc) Test 
#IOP(5/87=12) Density=Current Pop=(MK,readradii) iop(6/33=2) iop(6/42=6)

loop3.apoCaM-CA-Ng.Init31.run90.water5 

   0  1 
   C     69.50000000    72.91000000    42.40000000
   C     68.81000000    71.65000000    41.91000000
   O     68.44000000    70.72000000    42.62000000
   H     70.43600000    73.04600000    41.85700000
   H     68.85300000    73.77000000    42.22800000
   H     69.70900000    72.82000000    43.46600000
   N     68.35000000    71.68000000    40.66000000
   C     67.75000000    70.58000000    39.92000000
   C     68.76000000    69.47000000    39.65000000
   O     69.97000000    69.70000000    39.61000000
   C     67.12000000    70.93000000    38.58000000
   C     68.05000000    71.74000000    37.70000000
   O     68.48000000    71.20000000    36.65000000
   O     68.25000000    72.93000000    38.04000000
   H     68.55000000    72.51000000    40.12000000
   H     66.96000000    70.18000000    40.56000000
   H     66.21000000    71.51000000    38.73000000
   H     66.91000000    69.98000000    38.08000000
   N     68.29000000    68.23000000    39.54000000
   C     69.10000000    67.04000000    39.40000000
   C     69.61000000    66.47000000    40.72000000
   O     70.76000000    66.06000000    40.80000000
   C     68.29000000    66.11000000    38.51000000
   C     69.04000000    64.80000000    38.30000000
   C     68.41000000    63.97000000    37.18000000
   C     67.14000000    63.32000000    37.70000000
   N     66.51000000    62.59000000    36.59000000
   H     67.29000000    68.11000000    39.66000000
   H     70.05000000    67.30000000    38.92000000
   H     68.04000000    66.68000000    37.61000000
   H     67.38000000    65.97000000    39.08000000
   H     69.13000000    64.19000000    39.20000000
   H     70.01000000    65.08000000    37.88000000
   H     69.14000000    63.18000000    36.98000000
   H     68.13000000    64.66000000    36.38000000
   H     66.58000000    64.16000000    38.13000000
   H     67.41000000    62.65000000    38.51000000
   H     66.95000000    61.74000000    36.28000000
   H     65.62000000    62.25000000    36.92000000
   H     66.24000000    63.16000000    35.80000000
   N     68.80000000    66.23000000    41.76000000
   C     69.21000000    65.62000000    43.01000000
   C     68.96000000    64.13000000    42.88000000
   O     68.18000000    63.56000000    43.64000000
   C     68.61000000    66.20000000    44.29000000
   C     67.09000000    66.30000000    44.20000000
   O     66.45000000    66.12000000    45.26000000
   O     66.41000000    66.48000000    43.17000000
   H     67.85000000    66.57000000    41.71000000
   H     70.27000000    65.79000000    43.20000000
   H     69.09000000    67.16000000    44.45000000
   H     68.95000000    65.68000000    45.19000000
   N     69.64000000    63.45000000    41.96000000
   C     69.50000000    62.04000000    41.64000000
   C     68.24000000    61.54000000    40.96000000
   O     67.23000000    62.21000000    40.74000000
   H     70.33000000    63.94000000    41.41000000
   H     69.69000000    61.46000000    42.54000000
   H     70.28000000    61.78000000    40.91000000
   N     68.22000000    60.33000000    40.41000000
   C     69.27000000    59.34000000    40.29000000
   C     68.88000000    58.25000000    41.29000000
   O     67.71000000    57.89000000    41.42000000
   C     69.38000000    58.80000000    38.87000000
   C     69.79000000    59.89000000    37.89000000
   N     71.06000000    60.31000000    37.85000000
   O     68.92000000    60.45000000    37.24000000
   H     67.32000000    60.09000000    40.00000000
   H     70.23000000    59.80000000    40.51000000
   H     68.45000000    58.33000000    38.57000000
   H     70.18000000    58.05000000    38.86000000
   H     71.75000000    59.70000000    38.26000000
   H     71.33000000    61.12000000    37.31000000
   N     69.86000000    57.51000000    41.82000000
   C     71.30000000    57.59000000    41.66000000
   C     72.05000000    58.58000000    42.53000000
   O     71.79000000    59.79000000    42.57000000
   H     69.56000000    56.65000000    42.26000000
   H     71.46000000    57.83000000    40.60000000
   H     71.71000000    56.61000000    41.87000000
   N     73.00000000    58.10000000    43.33000000
   C     73.64000000    58.79000000    44.43000000
   C     75.11000000    58.40000000    44.54000000
   O     75.39000000    57.37000000    45.14000000
   C     72.76000000    58.46000000    45.63000000
   C     71.27000000    58.58000000    45.41000000
   C     70.63000000    59.82000000    45.47000000
   C     70.48000000    57.44000000    45.23000000
   C     69.26000000    59.94000000    45.22000000
   C     69.11000000    57.49000000    44.94000000
   C     68.53000000    58.77000000    44.93000000
   O     67.17000000    58.91000000    44.93000000
   H     73.09000000    57.09000000    43.36000000
   H     73.57000000    59.86000000    44.23000000
   H     73.10000000    59.17000000    46.38000000
   H     72.94000000    57.44000000    45.99000000
   H     71.19000000    60.73000000    45.64000000
   H     71.01000000    56.50000000    45.17000000
   H     68.80000000    60.92000000    45.21000000
   H     68.52000000    56.60000000    44.77000000
   H     66.74000000    58.08000000    44.71000000
   N     76.03000000    59.23000000    44.03000000
   C     77.46000000    59.05000000    43.89000000
   C     78.37000000    60.17000000    44.36000000
   O     79.58000000    60.01000000    44.21000000
   C     77.74000000    58.79000000    42.42000000
   C     77.09000000    57.51000000    41.93000000
   C     77.53000000    60.01000000    41.52000000
   C     77.59000000    56.22000000    42.57000000
   H     75.63000000    60.05000000    43.60000000
   H     77.81000000    58.20000000    44.49000000
   H     78.80000000    58.54000000    42.32000000
   H     77.38000000    57.39000000    40.89000000
   H     76.00000000    57.50000000    41.91000000
   H     78.31000000    60.72000000    41.80000000
   H     77.76000000    59.57000000    40.56000000
   H     76.54000000    60.46000000    41.62000000
   H     77.11000000    56.16000000    43.55000000
   H     77.40000000    55.38000000    41.90000000
   H     78.65000000    56.29000000    42.84000000
   N     77.83000000    61.34000000    44.71000000
   C     78.61000000    62.53000000    44.96000000
   C     78.38000000    63.67000000    43.98000000
   O     79.09000000    64.67000000    43.97000000
   C     78.48000000    63.03000000    46.40000000
   O     77.27000000    63.74000000    46.53000000
   H     76.84000000    61.45000000    44.55000000
   H     79.67000000    62.31000000    44.84000000
   H     79.28000000    63.67000000    46.75000000
   H     78.36000000    62.13000000    47.01000000
   H     76.58000000    63.38000000    45.96000000
   N     77.42000000    63.50000000    43.06000000
   C     77.08000000    64.64000000    42.22000000
   C     76.15000000    65.64000000    42.89000000
   O     75.06000000    65.98000000    42.43000000
   C     76.46000000    64.12000000    40.93000000
   H     76.71000000    62.80000000    43.17000000
   H     77.91000000    65.19000000    41.78000000
   H     77.01000000    63.28000000    40.50000000
   H     75.52000000    63.64000000    41.23000000
   H     76.37000000    64.98000000    40.27000000
   N     76.64000000    66.12000000    44.03000000
   C     75.94000000    67.03000000    44.92000000
   C     74.54000000    66.69000000    45.40000000
   O     73.76000000    67.56000000    45.79000000
   C     75.99000000    68.42000000    44.29000000
   H     77.59000000    65.90000000    44.27000000
   H     76.55000000    67.07000000    45.82000000
   H     75.54000000    68.49000000    43.30000000
   H     75.68000000    69.20000000    44.99000000
   H     77.04000000    68.71000000    44.17000000
   N     74.22000000    65.39000000    45.45000000
   C     72.85000000    64.90000000    45.52000000
   C     72.44000000    64.37000000    46.89000000
   O     71.41000000    64.78000000    47.42000000
   C     72.54000000    63.96000000    44.37000000
   C     73.10000000    62.54000000    44.35000000
   C     74.61000000    62.36000000    44.29000000
   O     75.30000000    62.70000000    45.28000000
   O     75.05000000    61.80000000    43.26000000
   H     74.89000000    64.74000000    45.07000000
   H     72.17000000    65.74000000    45.41000000
   H     72.80000000    64.44000000    43.42000000
   H     71.46000000    63.91000000    44.24000000
   H     72.75000000    61.93000000    43.52000000
   H     72.71000000    62.13000000    45.28000000
   N     73.26000000    63.54000000    47.54000000
   C     73.60000000    63.60000000    48.95000000
   H     74.42300000    64.29900000    49.09500000
   H     72.73400000    63.93700000    49.51900000
   H     73.90000000    62.61000000    49.29500000
   H     74.04000000    63.33000000    46.94000000
  Ca     63.94000000    65.99000000    44.21000000
   O     64.39000000    63.45000000    43.34000000
   H     64.94000000    62.71000000    43.59000000
   H     63.79000000    63.10000000    42.68000000
   O     63.15000000    65.74000000    41.73000000
   H     62.45000000    66.17000000    41.24000000
   H     63.72000000    65.38000000    41.06000000
   O     64.22000000    68.38000000    42.87000000
   H     65.15000000    68.51000000    42.69000000
   H     63.78000000    68.73000000    42.09000000
   O     61.65000000    64.25000000    44.73000000
   H     60.85000000    63.94000000    44.31000000
   H     61.68000000    63.78000000    45.56000000
   O     64.28000000    64.42000000    46.28000000
   H     64.75000000    64.86000000    46.99000000
   H     64.01000000    63.58000000    46.65000000

Ca 1.00



