%chk=loop1.holoCaM-CaMKII.run75.water2.chk
%nprocshared=20
%mem=10GB
%nosave
#b3lyp/svp scf=(tight,noincore,xqc) Test 
#IOP(5/87=12) Density=Current Pop=(MK,readradii) iop(6/33=2) iop(6/42=6)

loop1.holoCaM-CaMKII.run75.water2 

   0  1 
   C     13.97000000    51.69000000    95.87500000
   C     13.78000000    52.72000000    94.77500000
   O     12.96000000    52.47000000    93.88500000
   H     14.72600000    52.04300000    96.57600000
   H     13.02700000    51.54200000    96.40200000
   H     14.29400000    50.74600000    95.43700000
   N     14.68000000    53.70000000    94.70500000
   C     14.70000000    54.79000000    93.75500000
   C     15.43000000    54.35000000    92.48500000
   O     16.53000000    54.81000000    92.17500000
   C     15.21000000    56.07000000    94.40500000
   C     14.87000000    57.35000000    93.66500000
   O     15.34000000    58.38000000    94.18500000
   O     14.08000000    57.37000000    92.69500000
   H     15.27000000    53.74000000    95.52500000
   H     13.68000000    54.92000000    93.39500000
   H     16.28000000    55.94000000    94.57500000
   H     14.78000000    56.05000000    95.40500000
   N     14.91000000    53.36000000    91.76500000
   C     15.48000000    52.84000000    90.53500000
   C     15.63000000    53.80000000    89.36500000
   O     16.63000000    53.78000000    88.65500000
   C     14.72000000    51.56000000    90.19500000
   C     15.02000000    50.46000000    91.21500000
   C     14.45000000    49.12000000    90.76500000
   C     14.77000000    47.90000000    91.61500000
   N     14.05000000    47.87000000    92.90500000
   H     14.00000000    53.04000000    92.04500000
   H     16.50000000    52.55000000    90.77500000
   H     15.00000000    51.23000000    89.19500000
   H     13.65000000    51.76000000    90.23500000
   H     14.47000000    50.78000000    92.09500000
   H     16.04000000    50.37000000    91.60500000
   H     14.92000000    48.90000000    89.80500000
   H     13.37000000    49.23000000    90.64500000
   H     15.82000000    47.68000000    91.76500000
   H     14.46000000    47.05000000    91.00500000
   H     13.11000000    48.23000000    92.96500000
   H     14.04000000    46.93000000    93.26500000
   H     14.60000000    48.37000000    93.58500000
   N     14.70000000    54.75000000    89.21500000
   C     14.69000000    55.77000000    88.18500000
   C     15.60000000    56.92000000    88.59500000
   O     16.25000000    57.48000000    87.70500000
   C     13.27000000    56.19000000    87.81500000
   C     12.26000000    56.56000000    88.89500000
   O     12.65000000    57.29000000    89.83500000
   O     11.06000000    56.29000000    88.70500000
   H     14.02000000    54.75000000    89.95500000
   H     15.23000000    55.35000000    87.34500000
   H     12.81000000    55.39000000    87.24500000
   H     13.46000000    56.96000000    87.06500000
   N     15.57000000    57.29000000    89.87500000
   C     16.38000000    58.32000000    90.50500000
   C     15.84000000    59.73000000    90.36500000
   O     16.08000000    60.43000000    89.38500000
   H     15.04000000    56.75000000    90.54500000
   H     17.38000000    58.33000000    90.07500000
   H     16.26000000    57.99000000    91.53500000
   N     15.20000000    60.27000000    91.41500000
   C     14.84000000    61.67000000    91.55500000
   C     14.96000000    62.17000000    92.98500000
   O     14.53000000    63.27000000    93.31500000
   C     13.42000000    61.86000000    91.04500000
   C     12.47000000    60.81000000    91.62500000
   O     11.43000000    60.41000000    91.05500000
   O     12.71000000    60.28000000    92.73500000
   H     15.23000000    59.76000000    92.28500000
   H     15.50000000    62.32000000    90.98500000
   H     13.41000000    61.78000000    89.96500000
   H     13.00000000    62.84000000    91.28500000
   N     15.44000000    61.30000000    93.87500000
   C     15.64000000    61.50000000    95.29500000
   C     14.43000000    61.14000000    96.15500000
   O     14.40000000    61.46000000    97.33500000
   H     15.70000000    60.36000000    93.63500000
   H     15.85000000    62.56000000    95.42500000
   H     16.56000000    60.98000000    95.56500000
   N     13.43000000    60.43000000    95.63500000
   C     12.17000000    60.05000000    96.24500000
   C     11.67000000    58.64000000    95.98500000
   O     11.95000000    58.07000000    94.93500000
   C     11.12000000    61.13000000    95.99500000
   C     11.43000000    62.43000000    96.72500000
   O     10.95000000    61.40000000    94.62500000
   H     13.60000000    60.14000000    94.67500000
   H     12.45000000    60.06000000    97.29500000
   H     10.17000000    60.74000000    96.38500000
   H     11.83000000    61.57000000    94.29500000
   H     10.74000000    63.17000000    96.32500000
   H     11.17000000    62.35000000    97.78500000
   H     12.47000000    62.74000000    96.84500000
   N     10.91000000    58.02000000    96.88500000
   C     10.34000000    56.70000000    96.73500000
   C      8.82000000    56.79000000    96.73500000
   O      8.28000000    57.25000000    97.73500000
   C     10.87000000    55.75000000    97.81500000
   C     12.39000000    55.64000000    97.74500000
   C     10.32000000    54.33000000    97.81500000
   C     13.03000000    55.18000000    99.04500000
   H     10.95000000    58.41000000    97.82500000
   H     10.60000000    56.23000000    95.78500000
   H     10.67000000    56.24000000    98.76500000
   H     12.79000000    56.65000000    97.61500000
   H     12.73000000    55.04000000    96.90500000
   H     10.47000000    53.80000000    96.87500000
   H     10.71000000    53.72000000    98.62500000
   H      9.24000000    54.39000000    97.97500000
   H     14.11000000    55.35000000    99.06500000
   H     12.53000000    55.63000000    99.89500000
   H     12.91000000    54.10000000    99.13500000
   N      8.19000000    56.58000000    95.57500000
   C      6.78000000    56.25000000    95.49500000
   C      6.36000000    55.00000000    96.25500000
   O      7.15000000    54.12000000    96.57500000
   C      6.38000000    56.10000000    94.03500000
   C      6.61000000    57.33000000    93.15500000
   O      7.26000000    55.16000000    93.44500000
   H      8.67000000    56.30000000    94.73500000
   H      6.28000000    57.07000000    96.01500000
   H      5.33000000    55.80000000    94.09500000
   H      7.26000000    55.31000000    92.50500000
   H      7.67000000    57.55000000    93.02500000
   H      6.12000000    57.21000000    92.19500000
   H      6.19000000    58.25000000    93.56500000
   N      5.04000000    54.77000000    96.32500000
   C      4.38000000    53.54000000    96.70500000
   C      4.72000000    52.43000000    95.72500000
   O      4.96000000    51.27000000    96.07500000
   C      2.86000000    53.51000000    96.86500000
   C      2.27000000    52.46000000    97.79500000
   O      2.32000000    54.75000000    97.25500000
   H      4.41000000    55.51000000    96.04500000
   H      4.86000000    53.19000000    97.62500000
   H      2.57000000    53.23000000    95.85500000
   H      1.54000000    54.86000000    96.71500000
   H      2.57000000    52.79000000    98.78500000
   H      1.18000000    52.56000000    97.85500000
   H      2.40000000    51.41000000    97.51500000
   N      4.76000000    52.66000000    94.41500000
   C      5.17000000    51.72000000    93.38500000
   C      6.62000000    51.29000000    93.53500000
   O      6.87000000    50.09000000    93.48500000
   C      4.78000000    52.24000000    92.00500000
   C      5.26000000    51.29000000    90.90500000
   C      4.85000000    51.88000000    89.56500000
   C      5.33000000    51.01000000    88.40500000
   N      6.30000000    51.79000000    87.61500000
   H      4.36000000    53.54000000    94.14500000
   H      4.61000000    50.80000000    93.49500000
   H      5.25000000    53.21000000    91.82500000
   H      3.72000000    52.46000000    91.87500000
   H      4.83000000    50.33000000    91.19500000
   H      6.34000000    51.25000000    91.03500000
   H      5.19000000    52.91000000    89.44500000
   H      3.77000000    51.86000000    89.50500000
   H      4.43000000    50.83000000    87.81500000
   H      5.82000000    50.08000000    88.70500000
   H      7.13000000    51.91000000    88.19500000
   H      6.61000000    51.29000000    86.79500000
   H      5.90000000    52.69000000    87.41500000
   N      7.49000000    52.21000000    93.96500000
   C      8.87000000    51.87000000    94.23500000
   C      9.06000000    51.08000000    95.51500000
   O      9.78000000    50.08000000    95.46500000
   C      9.82000000    53.06000000    94.26500000
   C     10.08000000    53.55000000    92.84500000
   C     10.76000000    54.91000000    92.67500000
   O     11.42000000    55.05000000    91.61500000
   O     10.45000000    55.88000000    93.39500000
   H      7.21000000    53.18000000    94.01500000
   H      9.30000000    51.28000000    93.42500000
   H     10.69000000    52.68000000    94.79500000
   H      9.31000000    53.78000000    94.90500000
   H      9.25000000    53.43000000    92.15500000
   H     10.79000000    52.78000000    92.55500000
   N      8.36000000    51.42000000    96.60500000
   C      8.30000000    50.64000000    97.82500000
   H      7.29200000    50.68800000    98.23700000
   H      8.55300000    49.60300000    97.60700000
   H      9.00800000    51.04300000    98.55000000
   H      7.74000000    52.21000000    96.53500000
  Ca     11.67000000    57.89000000    92.14000000
   O      9.61000000    57.41000000    90.60000000
   H      8.79000000    57.65000000    90.17000000
   H     10.08000000    56.89000000    89.95000000
   O      9.68000000    59.40000000    93.09000000
   H      9.91000000    60.09000000    93.71000000
   H      9.02000000    59.79000000    92.52000000

Ca 1.00



