%chk=loop3.holoCaM.run67.water2.chk
%nprocshared=20
%mem=10GB
%nosave
#b3lyp/svp scf=(tight,noincore,xqc) Test 
#IOP(5/87=12) Density=Current Pop=(MK,readradii) iop(6/33=2) iop(6/42=6)

loop3.holoCaM.run67.water2 

   0  1 
   C     75.92000000    54.50000000    15.15000000
   C     77.10000000    53.72000000    15.71000000
   O     78.10000000    53.43000000    15.05000000
   H     75.09800000    54.47800000    15.86600000
   H     76.21800000    55.53300000    14.97100000
   H     75.59700000    54.04700000    14.21300000
   N     77.08000000    53.45000000    17.01000000
   C     78.21000000    53.12000000    17.85000000
   C     77.95000000    51.72000000    18.40000000
   O     76.81000000    51.34000000    18.66000000
   C     78.31000000    54.16000000    18.96000000
   C     79.27000000    53.87000000    20.11000000
   O     80.15000000    54.70000000    20.44000000
   O     79.33000000    52.74000000    20.62000000
   H     76.23000000    53.65000000    17.53000000
   H     79.09000000    53.09000000    17.20000000
   H     77.37000000    54.25000000    19.51000000
   H     78.66000000    55.05000000    18.45000000
   N     78.96000000    50.85000000    18.46000000
   C     78.85000000    49.42000000    18.66000000
   C     78.68000000    48.97000000    20.10000000
   O     78.06000000    47.92000000    20.26000000
   C     80.02000000    48.62000000    18.08000000
   C     80.04000000    48.78000000    16.57000000
   C     81.10000000    47.92000000    15.89000000
   C     82.56000000    48.25000000    16.19000000
   N     83.53000000    47.36000000    15.53000000
   H     79.83000000    51.29000000    18.22000000
   H     77.92000000    49.08000000    18.19000000
   H     80.00000000    47.56000000    18.33000000
   H     80.96000000    48.99000000    18.50000000
   H     80.29000000    49.81000000    16.32000000
   H     79.06000000    48.55000000    16.16000000
   H     80.83000000    47.96000000    14.83000000
   H     80.89000000    46.86000000    15.97000000
   H     82.71000000    48.28000000    17.27000000
   H     82.67000000    49.22000000    15.72000000
   H     83.42000000    47.28000000    14.53000000
   H     84.45000000    47.64000000    15.84000000
   H     83.46000000    46.42000000    15.88000000
   N     79.19000000    49.71000000    21.09000000
   C     79.10000000    49.31000000    22.48000000
   C     78.44000000    50.41000000    23.29000000
   O     78.28000000    50.21000000    24.49000000
   C     80.48000000    48.87000000    22.98000000
   C     81.59000000    49.90000000    22.93000000
   O     82.67000000    49.70000000    23.52000000
   O     81.34000000    51.04000000    22.48000000
   H     79.69000000    50.54000000    20.80000000
   H     78.50000000    48.40000000    22.59000000
   H     80.79000000    47.94000000    22.49000000
   H     80.37000000    48.64000000    24.04000000
   N     77.94000000    51.49000000    22.68000000
   C     77.07000000    52.45000000    23.32000000
   C     77.81000000    53.27000000    24.36000000
   O     77.03000000    53.78000000    25.16000000
   H     78.33000000    51.76000000    21.78000000
   H     76.15000000    52.01000000    23.71000000
   H     76.71000000    53.17000000    22.58000000
   N     79.14000000    53.19000000    24.49000000
   C     79.88000000    53.88000000    25.52000000
   C     79.98000000    55.37000000    25.23000000
   O     80.56000000    56.01000000    26.10000000
   C     81.23000000    53.18000000    25.66000000
   C     82.22000000    53.47000000    24.54000000
   N     83.51000000    53.22000000    24.80000000
   O     81.82000000    53.80000000    23.43000000
   H     79.72000000    52.62000000    23.89000000
   H     79.40000000    53.80000000    26.50000000
   H     81.08000000    52.10000000    25.73000000
   H     81.67000000    53.42000000    26.63000000
   H     83.79000000    52.84000000    25.69000000
   H     84.25000000    53.26000000    24.11000000
   N     79.40000000    55.98000000    24.19000000
   C     79.58000000    57.40000000    23.95000000
   C     80.98000000    57.80000000    23.51000000
   O     81.38000000    58.94000000    23.69000000
   H     78.99000000    55.50000000    23.41000000
   H     79.55000000    57.95000000    24.89000000
   H     78.85000000    57.85000000    23.27000000
   N     81.77000000    56.87000000    22.97000000
   C     83.06000000    57.20000000    22.37000000
   C     83.30000000    56.58000000    21.01000000
   O     83.05000000    55.39000000    20.83000000
   C     84.26000000    56.95000000    23.27000000
   C     84.34000000    57.54000000    24.66000000
   C     83.84000000    56.84000000    25.76000000
   C     84.90000000    58.82000000    24.83000000
   C     83.89000000    57.43000000    27.03000000
   C     85.13000000    59.38000000    26.09000000
   C     84.63000000    58.62000000    27.17000000
   O     84.76000000    59.16000000    28.42000000
   H     81.53000000    55.90000000    22.90000000
   H     83.03000000    58.25000000    22.07000000
   H     85.21000000    57.15000000    22.78000000
   H     84.30000000    55.88000000    23.50000000
   H     83.37000000    55.87000000    25.70000000
   H     85.12000000    59.44000000    23.98000000
   H     83.54000000    56.87000000    27.88000000
   H     85.62000000    60.33000000    26.21000000
   H     85.13000000    60.05000000    28.34000000
   N     83.86000000    57.38000000    20.09000000
   C     84.07000000    56.89000000    18.74000000
   C     85.49000000    56.40000000    18.46000000
   O     86.47000000    57.12000000    18.62000000
   C     83.46000000    57.88000000    17.75000000
   C     81.94000000    58.02000000    17.74000000
   C     83.94000000    57.61000000    16.32000000
   C     81.11000000    56.89000000    17.15000000
   H     84.01000000    58.36000000    20.26000000
   H     83.47000000    56.00000000    18.60000000
   H     83.79000000    58.86000000    18.08000000
   H     81.73000000    58.95000000    17.21000000
   H     81.60000000    58.07000000    18.78000000
   H     83.69000000    56.57000000    16.13000000
   H     83.39000000    58.20000000    15.59000000
   H     85.01000000    57.69000000    16.15000000
   H     80.04000000    57.07000000    17.25000000
   H     81.36000000    56.76000000    16.09000000
   H     81.41000000    56.00000000    17.71000000
   N     85.61000000    55.13000000    18.09000000
   C     86.83000000    54.56000000    17.55000000
   C     87.01000000    54.69000000    16.05000000
   O     86.12000000    55.18000000    15.35000000
   C     86.83000000    53.08000000    17.94000000
   O     85.74000000    52.29000000    17.51000000
   H     84.71000000    54.68000000    17.95000000
   H     87.68000000    55.03000000    18.04000000
   H     86.95000000    53.06000000    19.02000000
   H     87.72000000    52.59000000    17.55000000
   H     84.91000000    52.65000000    17.83000000
   N     88.19000000    54.28000000    15.57000000
   C     88.45000000    54.29000000    14.15000000
   C     87.41000000    53.48000000    13.38000000
   O     86.96000000    53.85000000    12.30000000
   C     89.90000000    53.97000000    13.82000000
   H     88.84000000    53.86000000    16.22000000
   H     88.43000000    55.33000000    13.81000000
   H     90.22000000    54.27000000    12.82000000
   H     90.66000000    54.40000000    14.47000000
   H     89.89000000    52.88000000    13.79000000
   N     87.10000000    52.25000000    13.80000000
   C     86.20000000    51.37000000    13.09000000
   C     84.74000000    51.81000000    13.13000000
   O     84.00000000    51.58000000    12.17000000
   C     86.44000000    50.00000000    13.72000000
   H     87.55000000    51.92000000    14.64000000
   H     86.55000000    51.34000000    12.05000000
   H     86.18000000    50.18000000    14.76000000
   H     85.79000000    49.21000000    13.35000000
   H     87.46000000    49.64000000    13.64000000
   N     84.30000000    52.57000000    14.13000000
   C     83.03000000    53.26000000    14.16000000
   C     83.00000000    54.46000000    13.23000000
   O     82.03000000    54.52000000    12.48000000
   C     82.68000000    53.67000000    15.59000000
   C     82.16000000    52.49000000    16.40000000
   C     82.25000000    52.70000000    17.91000000
   O     81.39000000    52.15000000    18.64000000
   O     83.27000000    53.17000000    18.46000000
   H     85.00000000    52.68000000    14.85000000
   H     82.21000000    52.63000000    13.82000000
   H     81.88000000    54.41000000    15.52000000
   H     83.48000000    54.23000000    16.08000000
   H     82.80000000    51.64000000    16.17000000
   H     81.13000000    52.25000000    16.14000000
   N     84.07000000    55.26000000    13.13000000
   C     84.12000000    56.47000000    12.33000000
   H     85.14400000    56.84100000    12.29700000
   H     83.78100000    56.25100000    11.31800000
   H     83.47400000    57.22700000    12.77500000
   H     84.79000000    55.02000000    13.79000000
  Ca     82.08000000    52.92000000    20.95000000
   O     84.63000000    53.08000000    21.87000000
   H     85.28000000    53.76000000    21.74000000
   H     85.14000000    52.27000000    21.96000000
   O     83.47000000    50.80000000    20.14000000
   H     83.92000000    50.75000000    19.29000000
   H     83.51000000    49.90000000    20.47000000

Ca 1.00



