%chk=loop3.holoCaM.run97.water3.chk
%nprocshared=20
%mem=10GB
%nosave
#b3lyp/svp scf=(tight,noincore,xqc) Test 
#IOP(5/87=12) Density=Current Pop=(MK,readradii) iop(6/33=2) iop(6/42=6)

loop3.holoCaM.run97.water3 

   0  1 
   C     42.26000000    38.69000000    10.33000000
   C     43.12000000    39.02000000    11.54000000
   O     43.74000000    38.18000000    12.18000000
   H     41.36700000    39.31500000    10.33800000
   H     42.82700000    38.87900000     9.41800000
   H     41.96800000    37.64000000    10.36600000
   N     43.19000000    40.30000000    11.94000000
   C     43.65000000    40.67000000    13.26000000
   C     42.73000000    40.36000000    14.43000000
   O     41.56000000    40.75000000    14.40000000
   C     44.06000000    42.13000000    13.05000000
   C     45.03000000    42.65000000    14.10000000
   O     45.28000000    43.87000000    14.22000000
   O     45.48000000    41.84000000    14.94000000
   H     42.72000000    41.03000000    11.44000000
   H     44.54000000    40.07000000    13.46000000
   H     43.25000000    42.85000000    13.01000000
   H     44.68000000    42.05000000    12.15000000
   N     43.25000000    39.75000000    15.49000000
   C     42.52000000    39.16000000    16.60000000
   C     42.49000000    39.91000000    17.92000000
   O     41.73000000    39.61000000    18.84000000
   C     43.02000000    37.73000000    16.76000000
   C     43.08000000    36.86000000    15.50000000
   C     41.80000000    36.78000000    14.67000000
   C     41.93000000    35.83000000    13.48000000
   N     40.57000000    35.56000000    13.00000000
   H     44.26000000    39.65000000    15.49000000
   H     41.47000000    39.01000000    16.38000000
   H     42.39000000    37.13000000    17.42000000
   H     44.03000000    37.83000000    17.14000000
   H     43.38000000    35.84000000    15.70000000
   H     43.89000000    37.28000000    14.90000000
   H     41.57000000    37.79000000    14.33000000
   H     40.96000000    36.43000000    15.27000000
   H     42.44000000    34.93000000    13.83000000
   H     42.38000000    36.43000000    12.69000000
   H     40.10000000    36.44000000    12.85000000
   H     40.51000000    35.03000000    12.14000000
   H     40.13000000    34.97000000    13.69000000
   N     43.40000000    40.88000000    18.05000000
   C     43.43000000    41.90000000    19.08000000
   C     43.43000000    43.34000000    18.59000000
   O     43.42000000    44.26000000    19.42000000
   C     44.64000000    41.69000000    19.98000000
   C     46.00000000    41.77000000    19.30000000
   O     46.17000000    41.75000000    18.07000000
   O     46.96000000    41.90000000    20.09000000
   H     44.10000000    40.93000000    17.33000000
   H     42.54000000    41.77000000    19.70000000
   H     44.51000000    40.68000000    20.37000000
   H     44.52000000    42.39000000    20.80000000
   N     43.46000000    43.58000000    17.28000000
   C     43.48000000    44.91000000    16.70000000
   C     44.71000000    45.69000000    17.12000000
   O     44.68000000    46.92000000    17.24000000
   H     43.75000000    42.85000000    16.64000000
   H     42.59000000    45.41000000    17.10000000
   H     43.50000000    44.93000000    15.61000000
   N     45.89000000    45.08000000    17.22000000
   C     47.15000000    45.76000000    17.46000000
   C     47.83000000    46.32000000    16.22000000
   O     48.86000000    46.98000000    16.28000000
   C     48.07000000    44.79000000    18.19000000
   C     49.14000000    44.07000000    17.39000000
   N     50.42000000    44.14000000    17.76000000
   O     48.92000000    43.50000000    16.32000000
   H     45.91000000    44.12000000    16.89000000
   H     46.87000000    46.62000000    18.07000000
   H     47.48000000    44.03000000    18.71000000
   H     48.62000000    45.33000000    18.96000000
   H     50.70000000    44.47000000    18.67000000
   H     51.12000000    43.78000000    17.12000000
   N     47.27000000    46.09000000    15.03000000
   C     47.74000000    46.64000000    13.78000000
   C     48.52000000    45.69000000    12.88000000
   O     48.72000000    46.02000000    11.72000000
   H     46.44000000    45.51000000    15.04000000
   H     48.38000000    47.50000000    14.01000000
   H     46.89000000    46.91000000    13.15000000
   N     48.89000000    44.48000000    13.31000000
   C     49.53000000    43.49000000    12.48000000
   C     49.03000000    42.06000000    12.62000000
   O     48.35000000    41.73000000    13.59000000
   C     51.00000000    43.44000000    12.91000000
   C     51.76000000    44.73000000    13.06000000
   C     52.52000000    45.27000000    12.02000000
   C     51.59000000    45.44000000    14.25000000
   C     53.13000000    46.52000000    12.17000000
   C     52.19000000    46.70000000    14.38000000
   C     52.94000000    47.29000000    13.34000000
   O     53.59000000    48.48000000    13.48000000
   H     48.58000000    44.22000000    14.24000000
   H     49.68000000    43.76000000    11.43000000
   H     51.60000000    42.85000000    12.21000000
   H     51.05000000    42.99000000    13.90000000
   H     52.48000000    44.75000000    11.07000000
   H     51.03000000    45.04000000    15.08000000
   H     53.71000000    47.00000000    11.39000000
   H     52.08000000    47.25000000    15.30000000
   H     53.56000000    48.79000000    14.38000000
   N     49.36000000    41.21000000    11.64000000
   C     48.91000000    39.83000000    11.62000000
   C     50.15000000    38.94000000    11.69000000
   O     51.13000000    39.28000000    11.03000000
   C     48.09000000    39.70000000    10.34000000
   C     47.07000000    40.81000000    10.08000000
   C     47.33000000    38.38000000    10.32000000
   C     46.31000000    40.93000000     8.76000000
   H     49.88000000    41.53000000    10.84000000
   H     48.20000000    39.64000000    12.42000000
   H     48.77000000    39.63000000     9.49000000
   H     47.62000000    41.74000000    10.18000000
   H     46.40000000    40.79000000    10.94000000
   H     46.56000000    38.42000000    11.08000000
   H     46.99000000    38.26000000     9.29000000
   H     47.96000000    37.53000000    10.59000000
   H     45.32000000    41.33000000     8.96000000
   H     46.79000000    41.58000000     8.03000000
   H     46.18000000    39.97000000     8.26000000
   N     50.08000000    37.83000000    12.42000000
   C     51.06000000    36.77000000    12.53000000
   C     50.45000000    35.52000000    11.93000000
   O     49.24000000    35.43000000    11.71000000
   C     51.56000000    36.63000000    13.97000000
   O     50.82000000    35.67000000    14.68000000
   H     49.22000000    37.70000000    12.95000000
   H     51.98000000    36.92000000    11.96000000
   H     51.59000000    37.57000000    14.52000000
   H     52.59000000    36.28000000    13.87000000
   H     50.28000000    36.11000000    15.35000000
   N     51.21000000    34.46000000    11.63000000
   C     50.75000000    33.18000000    11.15000000
   C     49.93000000    32.33000000    12.12000000
   O     49.27000000    31.39000000    11.69000000
   C     51.97000000    32.33000000    10.80000000
   H     52.22000000    34.55000000    11.67000000
   H     50.15000000    33.33000000    10.26000000
   H     52.46000000    31.89000000    11.67000000
   H     51.51000000    31.56000000    10.17000000
   H     52.54000000    32.89000000    10.06000000
   N     49.97000000    32.73000000    13.39000000
   C     49.15000000    32.15000000    14.43000000
   C     47.74000000    32.69000000    14.24000000
   O     46.81000000    31.90000000    14.09000000
   C     49.65000000    32.48000000    15.84000000
   H     50.68000000    33.39000000    13.68000000
   H     49.18000000    31.06000000    14.37000000
   H     50.71000000    32.24000000    15.97000000
   H     49.59000000    33.55000000    16.04000000
   H     49.10000000    31.90000000    16.58000000
   N     47.63000000    34.01000000    14.12000000
   C     46.38000000    34.61000000    13.71000000
   C     45.77000000    34.04000000    12.44000000
   O     44.58000000    33.72000000    12.45000000
   C     46.49000000    36.13000000    13.62000000
   C     46.69000000    36.72000000    15.01000000
   C     46.99000000    38.21000000    14.89000000
   O     48.15000000    38.62000000    14.70000000
   O     46.03000000    38.92000000    15.27000000
   H     48.41000000    34.66000000    14.06000000
   H     45.65000000    34.34000000    14.48000000
   H     45.57000000    36.64000000    13.33000000
   H     47.31000000    36.47000000    12.99000000
   H     47.52000000    36.30000000    15.57000000
   H     45.72000000    36.56000000    15.48000000
   N     46.58000000    33.77000000    11.41000000
   C     46.16000000    33.15000000    10.17000000
   H     45.28900000    33.67600000     9.77800000
   H     46.97200000    33.20100000     9.44400000
   H     45.90200000    32.10700000    10.35400000
   H     47.51000000    34.15000000    11.46000000
  Ca     47.49000000    40.90000000    16.04000000
   O     48.91000000    40.63000000    18.23000000
   H     48.35000000    41.12000000    18.83000000
   H     49.72000000    40.49000000    18.71000000
   O     50.38000000    40.75000000    15.65000000
   H     50.93000000    41.25000000    16.25000000
   H     50.86000000    40.73000000    14.83000000
   O     46.55000000    38.65000000    18.04000000
   H     46.15000000    38.63000000    18.91000000
   H     45.82000000    38.48000000    17.43000000

Ca 1.00



