%chk=loop1.apoCaM-CA-Ng.Init31.run83.water4.chk
%nprocshared=20
%mem=10GB
%nosave
#b3lyp/svp scf=(tight,noincore,xqc) Test 
#IOP(5/87=12) Density=Current Pop=(MK,readradii) iop(6/33=2) iop(6/42=6)

loop1.apoCaM-CA-Ng.Init31.run83.water4 

   0  1 
   C     57.95000000    36.57000000     5.55000000
   C     58.38000000    36.79000000     4.11000000
   O     57.54000000    36.57000000     3.25000000
   H     56.91900000    36.21600000     5.57100000
   H     58.59800000    35.82700000     6.01400000
   H     58.02200000    37.50900000     6.09900000
   N     59.69000000    37.00000000     3.96000000
   C     60.30000000    36.97000000     2.65000000
   C     60.30000000    35.55000000     2.09000000
   O     60.01000000    34.51000000     2.68000000
   C     61.73000000    37.47000000     2.85000000
   C     62.24000000    37.97000000     1.51000000
   O     61.58000000    38.00000000     0.44000000
   O     63.46000000    38.19000000     1.51000000
   H     60.20000000    37.36000000     4.76000000
   H     59.73000000    37.70000000     2.06000000
   H     62.36000000    36.62000000     3.12000000
   H     61.76000000    38.28000000     3.57000000
   N     60.63000000    35.42000000     0.81000000
   C     60.68000000    34.18000000     0.06000000
   C     61.63000000    33.16000000     0.67000000
   O     61.22000000    32.04000000     0.96000000
   C     61.01000000    34.56000000    -1.38000000
   C     59.98000000    35.43000000    -2.09000000
   C     58.50000000    35.04000000    -2.01000000
   C     57.63000000    35.99000000    -2.82000000
   N     57.37000000    37.25000000    -2.10000000
   H     61.03000000    36.19000000     0.30000000
   H     59.71000000    33.69000000     0.15000000
   H     61.26000000    33.66000000    -1.94000000
   H     61.99000000    35.05000000    -1.41000000
   H     60.28000000    35.60000000    -3.12000000
   H     59.97000000    36.45000000    -1.69000000
   H     58.24000000    35.02000000    -0.96000000
   H     58.33000000    34.09000000    -2.53000000
   H     56.69000000    35.45000000    -2.95000000
   H     58.17000000    36.22000000    -3.73000000
   H     56.61000000    37.17000000    -1.43000000
   H     58.22000000    37.59000000    -1.67000000
   H     57.10000000    37.93000000    -2.79000000
   N     62.93000000    33.37000000     0.90000000
   C     63.79000000    34.53000000     0.80000000
   C     64.68000000    34.71000000     2.03000000
   O     64.97000000    33.76000000     2.74000000
   C     64.60000000    34.31000000    -0.48000000
   C     64.92000000    35.58000000    -1.26000000
   O     64.62000000    36.72000000    -0.83000000
   O     65.31000000    35.51000000    -2.44000000
   H     63.41000000    32.51000000     1.15000000
   H     63.15000000    35.40000000     0.71000000
   H     63.95000000    33.83000000    -1.20000000
   H     65.48000000    33.71000000    -0.24000000
   N     65.20000000    35.91000000     2.32000000
   C     66.37000000    36.15000000     3.13000000
   C     66.37000000    37.62000000     3.53000000
   O     65.49000000    38.04000000     4.28000000
   H     64.98000000    36.65000000     1.67000000
   H     67.22000000    35.78000000     2.56000000
   H     66.23000000    35.63000000     4.07000000
   N     67.38000000    38.39000000     3.10000000
   C     67.48000000    39.81000000     3.35000000
   C     68.83000000    40.10000000     4.01000000
   O     69.68000000    39.22000000     3.99000000
   C     67.48000000    40.55000000     2.01000000
   C     66.40000000    40.10000000     1.04000000
   O     65.33000000    40.75000000     1.03000000
   O     66.44000000    39.00000000     0.44000000
   H     68.10000000    37.97000000     2.52000000
   H     66.66000000    40.17000000     3.96000000
   H     68.44000000    40.31000000     1.54000000
   H     67.35000000    41.62000000     2.18000000
   N     69.12000000    41.26000000     4.59000000
   C     68.33000000    42.48000000     4.59000000
   C     68.76000000    43.46000000     3.51000000
   O     68.02000000    44.39000000     3.20000000
   H     70.04000000    41.28000000     5.02000000
   H     68.26000000    42.92000000     5.58000000
   H     67.26000000    42.28000000     4.53000000
   N     69.91000000    43.23000000     2.87000000
   C     70.60000000    43.98000000     1.84000000
   C     71.02000000    45.29000000     2.48000000
   O     70.71000000    46.34000000     1.91000000
   C     69.80000000    44.08000000     0.54000000
   C     69.19000000    42.78000000     0.02000000
   O     70.72000000    44.47000000    -0.45000000
   H     70.46000000    42.44000000     3.19000000
   H     71.54000000    43.48000000     1.59000000
   H     69.02000000    44.84000000     0.64000000
   H     71.06000000    45.33000000    -0.22000000
   H     68.46000000    42.44000000     0.75000000
   H     68.72000000    42.92000000    -0.95000000
   H     69.90000000    41.97000000    -0.11000000
   N     71.58000000    45.22000000     3.69000000
   C     72.17000000    46.28000000     4.48000000
   C     73.37000000    46.99000000     3.86000000
   O     74.40000000    47.01000000     4.53000000
   C     71.06000000    47.22000000     4.93000000
   C     69.79000000    46.59000000     5.49000000
   C     71.56000000    48.23000000     5.96000000
   C     69.94000000    45.79000000     6.78000000
   H     71.56000000    44.31000000     4.12000000
   H     72.55000000    45.79000000     5.38000000
   H     70.68000000    47.82000000     4.10000000
   H     69.37000000    45.81000000     4.86000000
   H     68.96000000    47.28000000     5.67000000
   H     70.78000000    48.82000000     6.45000000
   H     72.24000000    47.74000000     6.66000000
   H     72.10000000    49.02000000     5.46000000
   H     69.06000000    45.18000000     6.96000000
   H     70.81000000    45.15000000     6.64000000
   H     70.13000000    46.48000000     7.61000000
   N     73.22000000    47.45000000     2.62000000
   C     74.11000000    48.32000000     1.88000000
   C     73.36000000    49.58000000     1.49000000
   O     72.14000000    49.60000000     1.39000000
   C     74.70000000    47.55000000     0.70000000
   C     73.65000000    47.29000000    -0.39000000
   O     75.23000000    46.26000000     0.94000000
   H     72.33000000    47.30000000     2.15000000
   H     74.89000000    48.50000000     2.62000000
   H     75.55000000    48.09000000     0.28000000
   H     75.72000000    46.30000000     1.76000000
   H     73.14000000    48.20000000    -0.72000000
   H     74.11000000    46.88000000    -1.29000000
   H     72.97000000    46.54000000    -0.01000000
   N     74.11000000    50.65000000     1.19000000
   C     73.55000000    51.90000000     0.71000000
   C     72.82000000    51.88000000    -0.62000000
   O     73.17000000    51.05000000    -1.45000000
   C     74.56000000    53.04000000     0.86000000
   C     74.98000000    53.32000000     2.30000000
   O     75.77000000    52.71000000     0.21000000
   H     75.12000000    50.58000000     1.22000000
   H     72.80000000    52.03000000     1.49000000
   H     74.32000000    54.08000000     0.63000000
   H     76.13000000    51.95000000     0.67000000
   H     74.09000000    53.61000000     2.86000000
   H     75.43000000    52.42000000     2.73000000
   H     75.58000000    54.22000000     2.23000000
   N     71.70000000    52.59000000    -0.79000000
   C     70.93000000    52.73000000    -2.01000000
   C     70.45000000    51.36000000    -2.49000000
   O     70.37000000    51.07000000    -3.68000000
   C     71.75000000    53.52000000    -3.03000000
   C     72.32000000    54.88000000    -2.63000000
   C     71.38000000    56.06000000    -2.37000000
   C     70.56000000    56.10000000    -1.08000000
   N     69.59000000    57.21000000    -1.13000000
   H     71.63000000    53.36000000    -0.13000000
   H     70.04000000    53.32000000    -1.79000000
   H     71.12000000    53.68000000    -3.90000000
   H     72.55000000    52.87000000    -3.37000000
   H     73.10000000    55.21000000    -3.31000000
   H     72.97000000    54.69000000    -1.77000000
   H     70.76000000    56.17000000    -3.26000000
   H     71.97000000    56.97000000    -2.38000000
   H     71.14000000    56.17000000    -0.16000000
   H     69.95000000    55.21000000    -1.00000000
   H     69.16000000    57.32000000    -0.22000000
   H     70.12000000    58.04000000    -1.35000000
   H     68.96000000    57.07000000    -1.91000000
   N     70.08000000    50.48000000    -1.56000000
   C     69.53000000    49.16000000    -1.81000000
   C     69.60000000    48.25000000    -0.59000000
   O     69.94000000    47.10000000    -0.88000000
   C     68.10000000    49.22000000    -2.34000000
   C     67.32000000    47.91000000    -2.44000000
   C     66.04000000    48.08000000    -3.25000000
   O     65.67000000    47.18000000    -4.03000000
   O     65.30000000    49.09000000    -3.17000000
   H     70.06000000    50.82000000    -0.61000000
   H     70.23000000    48.66000000    -2.48000000
   H     68.19000000    49.74000000    -3.28000000
   H     67.49000000    49.80000000    -1.64000000
   H     66.97000000    47.54000000    -1.47000000
   H     67.87000000    47.10000000    -2.91000000
   N     69.51000000    48.67000000     0.67000000
   C     68.97000000    49.86000000     1.29000000
   H     67.97700000    49.64500000     1.68500000
   H     69.62400000    50.17500000     2.10300000
   H     68.90100000    50.65700000     0.54900000
   H     70.19000000    48.16000000     1.22000000
  Ca     64.01000000    39.26000000    -0.74500000
   O     64.90000000    38.22000000    -3.27500000
   H     65.67000000    38.40000000    -3.81500000
   H     65.03000000    37.32000000    -2.97500000
   O     62.43000000    41.11000000     0.09000000
   H     62.67000000    41.48000000     0.94000000
   H     61.78000000    41.71000000    -0.26000000
   O     62.08000000    39.44000000    -2.55500000
   H     61.16000000    39.17000000    -2.50500000
   H     62.13000000    39.99000000    -3.33500000
   O     64.56000000    41.19000000    -2.55500000
   H     65.28000000    41.77000000    -2.80500000
   H     63.86000000    41.40000000    -3.17500000

Ca 1.00



