%chk=loop2.apoCaM-CA-Ng.Init295.run20.water5.chk
%nprocshared=20
%mem=10GB
%nosave
#b3lyp/svp scf=(tight,noincore,xqc) Test 
#IOP(5/87=12) Density=Current Pop=(MK,readradii) iop(6/33=2) iop(6/42=6)

loop2.apoCaM-CA-Ng.Init295.run20.water5 

   -2  1 
   C     79.55000000    41.83000000    35.29000000
   C     78.95000000    42.35000000    33.99000000
   O     77.74000000    42.48000000    33.86000000
   H     80.44600000    42.40200000    35.53000000
   H     78.82300000    41.93900000    36.09500000
   H     79.81100000    40.77800000    35.17500000
   N     79.77000000    42.74000000    33.01000000
   C     79.28000000    43.35000000    31.79000000
   C     78.81000000    44.78000000    32.01000000
   O     79.58000000    45.63000000    32.46000000
   C     80.29000000    43.25000000    30.64000000
   C     81.73000000    43.58000000    30.98000000
   O     82.32000000    42.94000000    31.88000000
   O     82.33000000    44.51000000    30.38000000
   H     80.77000000    42.65000000    33.13000000
   H     78.45000000    42.73000000    31.45000000
   H     79.99000000    43.95000000    29.86000000
   H     80.12000000    42.30000000    30.14000000
   N     77.57000000    44.94000000    31.53000000
   C     76.95000000    46.24000000    31.33000000
   C     76.35000000    46.88000000    32.57000000
   O     76.14000000    46.15000000    33.53000000
   C     75.80000000    46.01000000    30.35000000
   H     77.09000000    44.19000000    31.06000000
   H     77.64000000    46.97000000    30.90000000
   H     75.21000000    45.22000000    30.81000000
   H     75.01000000    46.75000000    30.26000000
   H     76.18000000    45.72000000    29.37000000
   N     76.13000000    48.19000000    32.75000000
   C     76.27000000    49.29000000    31.82000000
   C     77.66000000    49.92000000    31.75000000
   O     78.20000000    50.49000000    32.70000000
   C     75.23000000    50.31000000    32.26000000
   C     73.83000000    49.72000000    32.33000000
   O     72.94000000    50.47000000    32.77000000
   O     73.45000000    48.61000000    31.90000000
   H     75.73000000    48.38000000    33.66000000
   H     75.93000000    48.90000000    30.86000000
   H     75.24000000    51.06000000    31.47000000
   H     75.49000000    50.81000000    33.20000000
   N     78.22000000    49.91000000    30.54000000
   C     79.55000000    50.42000000    30.28000000
   C     80.53000000    49.27000000    30.40000000
   O     80.42000000    48.36000000    29.58000000
   H     77.80000000    49.40000000    29.78000000
   H     79.71000000    51.22000000    31.00000000
   H     79.63000000    50.80000000    29.26000000
   N     81.44000000    49.23000000    31.39000000
   C     81.58000000    50.16000000    32.49000000
   C     81.25000000    49.55000000    33.84000000
   O     81.46000000    50.11000000    34.92000000
   C     83.04000000    50.60000000    32.49000000
   C     83.57000000    51.19000000    31.18000000
   N     84.88000000    51.39000000    31.13000000
   O     82.86000000    51.57000000    30.25000000
   H     82.16000000    48.53000000    31.37000000
   H     80.93000000    51.04000000    32.42000000
   H     83.68000000    49.75000000    32.72000000
   H     83.18000000    51.28000000    33.33000000
   H     85.49000000    51.04000000    31.86000000
   H     85.25000000    51.64000000    30.22000000
   N     80.41000000    48.52000000    33.81000000
   C     80.03000000    47.66000000    34.91000000
   C     79.11000000    48.36000000    35.89000000
   O     78.86000000    47.83000000    36.98000000
   H     80.17000000    48.11000000    32.92000000
   H     80.87000000    47.36000000    35.54000000
   H     79.46000000    46.79000000    34.57000000
   N     78.46000000    49.47000000    35.54000000
   C     77.52000000    50.25000000    36.32000000
   C     76.17000000    49.55000000    36.46000000
   O     75.55000000    49.13000000    35.49000000
   C     77.36000000    51.68000000    35.82000000
   C     76.32000000    52.56000000    36.52000000
   O     78.56000000    52.43000000    35.83000000
   H     78.71000000    49.95000000    34.68000000
   H     77.87000000    50.36000000    37.34000000
   H     77.27000000    51.58000000    34.74000000
   H     78.23000000    53.32000000    35.68000000
   H     75.31000000    52.16000000    36.51000000
   H     76.55000000    52.51000000    37.58000000
   H     76.31000000    53.59000000    36.18000000
   N     75.60000000    49.56000000    37.67000000
   C     74.44000000    48.82000000    38.09000000
   C     73.30000000    49.74000000    38.48000000
   O     73.44000000    50.91000000    38.84000000
   C     74.75000000    47.72000000    39.11000000
   C     75.68000000    46.62000000    38.63000000
   C     75.32000000    48.14000000    40.46000000
   C     75.51000000    46.05000000    37.22000000
   H     76.22000000    49.93000000    38.38000000
   H     74.16000000    48.26000000    37.20000000
   H     73.76000000    47.29000000    39.30000000
   H     75.53000000    45.76000000    39.28000000
   H     76.71000000    46.95000000    38.77000000
   H     74.69000000    48.89000000    40.92000000
   H     75.37000000    47.26000000    41.09000000
   H     76.36000000    48.41000000    40.24000000
   H     74.45000000    45.87000000    37.04000000
   H     75.81000000    46.88000000    36.58000000
   H     76.14000000    45.18000000    37.01000000
   N     72.17000000    49.03000000    38.44000000
   C     70.87000000    49.57000000    38.76000000
   C     69.79000000    48.51000000    38.96000000
   O     69.53000000    47.65000000    38.12000000
   C     70.41000000    50.50000000    37.64000000
   C     70.68000000    49.86000000    36.28000000
   O     71.78000000    50.07000000    35.73000000
   O     69.82000000    49.20000000    35.66000000
   H     72.18000000    48.19000000    37.89000000
   H     71.00000000    50.21000000    39.64000000
   H     70.93000000    51.44000000    37.78000000
   H     69.35000000    50.73000000    37.67000000
   N     69.12000000    48.51000000    40.12000000
   C     68.21000000    47.50000000    40.61000000
   C     68.91000000    46.25000000    41.12000000
   O     70.09000000    46.34000000    41.48000000
   C     67.45000000    48.13000000    41.77000000
   C     66.33000000    47.34000000    42.41000000
   C     66.61000000    46.67000000    43.60000000
   C     65.04000000    47.37000000    41.86000000
   C     65.61000000    45.98000000    44.30000000
   C     64.04000000    46.61000000    42.47000000
   C     64.36000000    45.97000000    43.67000000
   H     69.16000000    49.36000000    40.67000000
   H     67.55000000    47.29000000    39.76000000
   H     67.03000000    49.09000000    41.47000000
   H     68.13000000    48.46000000    42.55000000
   H     67.62000000    46.65000000    43.98000000
   H     64.79000000    47.96000000    40.99000000
   H     65.75000000    45.46000000    45.23000000
   H     63.01000000    46.56000000    42.14000000
   H     63.56000000    45.45000000    44.18000000
   N     68.22000000    45.10000000    41.14000000
   C     68.69000000    43.86000000    41.73000000
   C     70.00000000    43.32000000    41.18000000
   O     70.45000000    42.36000000    41.80000000
   C     67.58000000    42.81000000    41.69000000
   C     66.91000000    43.33000000    40.42000000
   C     67.03000000    44.85000000    40.37000000
   H     68.79000000    44.05000000    42.80000000
   H     67.91000000    41.77000000    41.66000000
   H     66.86000000    42.92000000    42.49000000
   H     67.37000000    42.87000000    39.55000000
   H     65.85000000    43.10000000    40.41000000
   H     67.29000000    45.11000000    39.34000000
   H     66.12000000    45.31000000    40.75000000
   N     70.61000000    43.85000000    40.12000000
   C     71.80000000    43.26000000    39.55000000
   C     73.10000000    43.51000000    40.31000000
   O     74.13000000    42.91000000    40.00000000
   C     71.92000000    43.52000000    38.05000000
   C     70.77000000    42.85000000    37.32000000
   C     70.79000000    43.16000000    35.83000000
   O     71.63000000    42.51000000    35.17000000
   O     69.95000000    43.91000000    35.28000000
   H     70.22000000    44.67000000    39.68000000
   H     71.71000000    42.18000000    39.69000000
   H     72.84000000    43.16000000    37.60000000
   H     72.00000000    44.60000000    37.92000000
   H     69.83000000    43.11000000    37.82000000
   H     70.98000000    41.79000000    37.44000000
   N     73.07000000    44.25000000    41.42000000
   C     74.22000000    44.43000000    42.28000000
   H     75.01400000    44.92900000    41.72400000
   H     73.94000000    45.04000000    43.13900000
   H     74.57300000    43.45800000    42.62400000
   H     72.25000000    44.83000000    41.52000000
  Ca     71.13000000    48.67000000    33.46000000
   O     68.55000000    47.79000000    32.81000000
   H     68.19000000    47.19000000    32.16000000
   H     67.80000000    48.01000000    33.38000000
   O     71.55000000    46.39000000    32.14000000
   H     71.89000000    45.77000000    32.80000000
   H     71.11000000    45.83000000    31.50000000
   O     70.19000000    46.64000000    34.95000000
   H     70.13000000    45.68000000    34.98000000
   H     69.59000000    46.94000000    35.63000000
   O     73.22000000    47.50000000    34.77000000
   H     73.95000000    46.97000000    34.45000000
   H     73.60000000    48.02000000    35.48000000
   O     70.30000000    49.54000000    30.59000000
   H     69.60000000    49.30000000    29.98000000
   H     69.98000000    50.34000000    31.01000000

Ca 1.00



