%chk=loop3.holoCaM-CaMKII.run38.water2.chk
%nprocshared=20
%mem=10GB
%nosave
#b3lyp/svp scf=(tight,noincore,xqc) Test 
#IOP(5/87=12) Density=Current Pop=(MK,readradii) iop(6/33=2) iop(6/42=6)

loop3.holoCaM-CaMKII.run38.water2 

   0  1 
   C     95.37400000    61.00000000    12.61600000
   C     95.80400000    61.49000000    13.98600000
   O     96.49400000    60.75000000    14.68600000
   H     94.51200000    61.57600000    12.27900000
   H     96.19400000    61.12800000    11.91000000
   H     95.10600000    59.94500000    12.67500000
   N     95.41400000    62.71000000    14.35600000
   C     95.80400000    63.25000000    15.64600000
   C     94.86400000    62.68000000    16.70600000
   O     93.69400000    63.01000000    16.83600000
   C     95.81400000    64.77000000    15.66600000
   C     96.31400000    65.31000000    16.99600000
   O     96.56400000    64.55000000    17.95600000
   O     96.35400000    66.55000000    17.13600000
   H     94.74400000    63.29000000    13.84600000
   H     96.79400000    62.89000000    15.90600000
   H     94.84400000    65.24000000    15.48600000
   H     96.40400000    65.24000000    14.87600000
   N     95.35400000    61.72000000    17.48600000
   C     94.49400000    60.79000000    18.20600000
   C     93.94400000    61.41000000    19.48600000
   O     92.76400000    61.16000000    19.73600000
   C     95.22400000    59.49000000    18.52600000
   C     95.76400000    58.69000000    17.34600000
   C     94.62400000    58.45000000    16.36600000
   C     95.04400000    57.38000000    15.36600000
   N     93.94400000    56.81000000    14.56600000
   H     96.33400000    61.49000000    17.42600000
   H     93.62400000    60.61000000    17.57600000
   H     94.51400000    58.86000000    19.05600000
   H     95.99400000    59.69000000    19.27600000
   H     96.10400000    57.74000000    17.77600000
   H     96.54400000    59.22000000    16.80600000
   H     94.50400000    59.42000000    15.88600000
   H     93.67400000    58.16000000    16.82600000
   H     95.52400000    56.56000000    15.89600000
   H     95.76400000    57.83000000    14.68600000
   H     94.10400000    55.91000000    14.13600000
   H     93.14400000    56.58000000    15.13600000
   H     93.68400000    57.48000000    13.85600000
   N     94.68400000    62.18000000    20.28600000
   C     94.27400000    62.93000000    21.45600000
   C     93.82400000    64.32000000    21.01600000
   O     93.19400000    65.07000000    21.75600000
   C     95.30400000    62.96000000    22.58600000
   C     96.64400000    63.59000000    22.21600000
   O     96.85400000    64.00000000    21.05600000
   O     97.57400000    63.47000000    23.03600000
   H     95.62400000    62.33000000    19.95600000
   H     93.38400000    62.41000000    21.80600000
   H     95.45400000    61.96000000    22.97600000
   H     94.88400000    63.46000000    23.45600000
   N     94.15400000    64.68000000    19.77600000
   C     93.85400000    65.99000000    19.24600000
   C     94.65400000    67.07000000    19.95600000
   O     94.17400000    68.17000000    20.19600000
   H     94.70400000    64.10000000    19.15600000
   H     92.79400000    66.19000000    19.40600000
   H     94.16400000    66.11000000    18.20600000
   N     95.89400000    66.84000000    20.39600000
   C     96.72400000    67.82000000    21.07600000
   C     97.13400000    68.95000000    20.14600000
   O     97.44400000    70.05000000    20.62600000
   C     97.97400000    67.17000000    21.65600000
   C     99.17400000    66.65000000    20.86600000
   N    100.38400000    66.51000000    21.41600000
   O     99.07400000    66.35000000    19.68600000
   H     96.13400000    65.85000000    20.41600000
   H     96.14400000    68.25000000    21.88600000
   H     97.59400000    66.44000000    22.36600000
   H     98.45400000    67.88000000    22.32600000
   H    100.48400000    66.71000000    22.40600000
   H    101.17400000    66.10000000    20.93600000
   N     97.20400000    68.80000000    18.82600000
   C     97.77400000    69.72000000    17.86600000
   C     98.79400000    69.14000000    16.89600000
   O     99.35400000    69.81000000    16.03600000
   H     96.85400000    67.90000000    18.51600000
   H     98.45400000    70.44000000    18.31600000
   H     96.91400000    70.09000000    17.30600000
   N     99.10400000    67.84000000    17.01600000
   C    100.05400000    67.21000000    16.12600000
   C     99.81400000    65.72000000    15.94600000
   O     99.21400000    64.99000000    16.72600000
   C    101.47400000    67.33000000    16.67600000
   C    101.91400000    68.63000000    17.29600000
   C    102.37400000    69.65000000    16.45600000
   C    101.66400000    68.89000000    18.64600000
   C    102.74400000    70.87000000    17.03600000
   C    102.07400000    70.10000000    19.21600000
   C    102.62400000    71.11000000    18.41600000
   O    102.90400000    72.33000000    18.96600000
   H     98.60400000    67.30000000    17.69600000
   H     99.92400000    67.67000000    15.14600000
   H    102.15400000    67.07000000    15.86600000
   H    101.57400000    66.50000000    17.38600000
   H    102.43400000    69.41000000    15.40600000
   H    101.15400000    68.16000000    19.27600000
   H    102.92400000    71.73000000    16.39600000
   H    101.98400000    70.17000000    20.29600000
   H    103.37400000    72.87000000    18.32600000
   N    100.41400000    65.07000000    14.93600000
   C    100.55400000    63.65000000    14.70600000
   C    101.99400000    63.32000000    15.08600000
   O    102.94400000    63.88000000    14.55600000
   C    100.25400000    63.35000000    13.23600000
   C     99.12400000    64.14000000    12.58600000
   C     99.97400000    61.86000000    13.09600000
   C     99.05400000    63.90000000    11.08600000
   H    100.94400000    65.67000000    14.31600000
   H     99.96400000    63.04000000    15.38600000
   H    101.18400000    63.59000000    12.71600000
   H     99.32400000    65.22000000    12.60600000
   H     98.18400000    63.92000000    13.07600000
   H     99.03400000    61.51000000    13.52600000
   H     99.98400000    61.57000000    12.04600000
   H    100.79400000    61.28000000    13.51600000
   H     98.28400000    64.57000000    10.68600000
   H    100.00400000    64.09000000    10.58600000
   H     98.64400000    62.90000000    10.96600000
   N    102.23400000    62.36000000    15.98600000
   C    103.54400000    61.86000000    16.35600000
   C    103.73400000    60.51000000    15.68600000
   O    102.89400000    59.92000000    15.00600000
   C    103.63400000    61.85000000    17.87600000
   O    102.57400000    61.07000000    18.39600000
   H    101.46400000    61.98000000    16.51600000
   H    104.28400000    62.56000000    15.95600000
   H    103.59400000    62.89000000    18.20600000
   H    104.62400000    61.51000000    18.15600000
   H    101.79400000    61.54000000    18.10600000
   N    105.00400000    60.09000000    15.78600000
   C    105.47400000    58.85000000    15.21600000
   C    104.57400000    57.71000000    15.67600000
   O    104.06400000    56.93000000    14.87600000
   C    106.97400000    58.74000000    15.47600000
   H    105.68400000    60.80000000    16.01600000
   H    105.34400000    59.03000000    14.15600000
   H    107.51400000    59.50000000    14.91600000
   H    107.12400000    58.83000000    16.55600000
   H    107.24400000    57.73000000    15.15600000
   N    104.29400000    57.70000000    16.97600000
   C    103.44400000    56.77000000    17.71600000
   C    101.99400000    56.82000000    17.25600000
   O    101.40400000    55.74000000    17.25600000
   C    103.44400000    57.37000000    19.11600000
   H    104.89400000    58.31000000    17.50600000
   H    103.84400000    55.76000000    17.72600000
   H    103.27400000    56.62000000    19.87600000
   H    104.42400000    57.77000000    19.38600000
   H    102.73400000    58.20000000    19.09600000
   N    101.47400000    57.90000000    16.68600000
   C    100.14400000    58.01000000    16.10600000
   C    100.05400000    57.58000000    14.65600000
   O     99.04400000    57.04000000    14.22600000
   C     99.54400000    59.40000000    16.29600000
   C     99.37400000    59.62000000    17.79600000
   C     99.03400000    61.08000000    18.07600000
   O     97.93400000    61.47000000    18.52600000
   O     99.86400000    61.98000000    17.82600000
   H    101.96400000    58.75000000    16.44600000
   H     99.52400000    57.28000000    16.63600000
   H     98.54400000    59.36000000    15.85600000
   H    100.17400000    60.13000000    15.78600000
   H    100.19400000    59.29000000    18.44600000
   H     98.61400000    58.97000000    18.22600000
   N    101.14400000    57.85000000    13.92600000
   C    101.32400000    57.42000000    12.55600000
   H    102.37600000    57.19500000    12.38200000
   H    100.72700000    56.52700000    12.37300000
   H    101.00600000    58.21400000    11.88100000
   H    101.83400000    58.45000000    14.35600000
  Ca     98.60000000    63.82000000    19.16000000
   O    101.34400000    64.56000000    19.07000000
   H    102.05400000    65.16000000    18.83000000
   H    101.60400000    64.20000000    19.91000000
   O     99.55000000    63.13000000    21.43000000
   H     98.80000000    63.17000000    22.03000000
   H    100.31000000    63.27000000    21.99000000

Ca 1.00



