%chk=loop3.apoCaM-CA-Ng.Init31.run29.water6.chk
%nprocshared=20
%mem=10GB
%nosave
#b3lyp/svp scf=(tight,noincore,xqc) Test 
#IOP(5/87=12) Density=Current Pop=(MK,readradii) iop(6/33=2) iop(6/42=6)

loop3.apoCaM-CA-Ng.Init31.run29.water6 

   0  1 
   C    104.75000000    44.65000000    99.70000000
   C    106.03000000    45.38000000    99.30000000
   O    106.47000000    45.21000000    98.17000000
   H    103.94700000    44.92300000    99.01500000
   H    104.91500000    43.57400000    99.65400000
   H    104.47200000    44.93200000   100.71500000
   N    106.57000000    46.28000000   100.13000000
   C    107.72000000    47.14000000    99.90000000
   C    109.12000000    46.56000000    99.90000000
   O    109.45000000    45.66000000   100.67000000
   C    107.64000000    48.31000000   100.88000000
   C    107.55000000    47.89000000   102.34000000
   O    108.43000000    48.29000000   103.14000000
   O    106.61000000    47.19000000   102.76000000
   H    106.13000000    46.33000000   101.03000000
   H    107.63000000    47.53000000    98.88000000
   H    106.71000000    48.84000000   100.70000000
   H    108.49000000    48.98000000   100.76000000
   N    109.97000000    47.08000000    99.01000000
   C    111.39000000    46.80000000    98.96000000
   C    111.74000000    45.55000000    98.16000000
   O    112.76000000    44.95000000    98.51000000
   C    112.09000000    47.93000000    98.21000000
   C    112.21000000    49.20000000    99.05000000
   C    113.13000000    50.25000000    98.43000000
   C    113.00000000    51.53000000    99.26000000
   N    113.87000000    52.55000000    98.66000000
   H    109.69000000    47.92000000    98.53000000
   H    111.77000000    46.76000000    99.98000000
   H    111.61000000    48.09000000    97.25000000
   H    113.11000000    47.57000000    98.14000000
   H    112.58000000    49.05000000   100.06000000
   H    111.20000000    49.60000000    99.15000000
   H    112.79000000    50.47000000    97.41000000
   H    114.14000000    49.85000000    98.39000000
   H    113.37000000    51.27000000   100.25000000
   H    111.96000000    51.85000000    99.27000000
   H    113.91000000    53.39000000    99.22000000
   H    114.82000000    52.24000000    98.54000000
   H    113.45000000    52.86000000    97.80000000
   N    110.90000000    45.06000000    97.24000000
   C    111.20000000    43.77000000    96.64000000
   C    111.00000000    43.76000000    95.13000000
   O    110.47000000    42.81000000    94.57000000
   C    110.45000000    42.67000000    97.37000000
   C    108.94000000    42.79000000    97.55000000
   O    108.29000000    43.20000000    96.57000000
   O    108.36000000    42.35000000    98.57000000
   H    110.00000000    45.47000000    97.05000000
   H    112.27000000    43.58000000    96.64000000
   H    110.84000000    42.58000000    98.38000000
   H    110.60000000    41.72000000    96.86000000
   N    111.17000000    44.87000000    94.41000000
   C    110.63000000    45.08000000    93.08000000
   C    109.15000000    45.44000000    93.05000000
   O    108.42000000    44.97000000    93.92000000
   H    111.55000000    45.63000000    94.95000000
   H    110.74000000    44.18000000    92.49000000
   H    111.12000000    45.97000000    92.67000000
   N    108.68000000    46.29000000    92.14000000
   C    109.45000000    46.75000000    90.99000000
   C    108.67000000    46.87000000    89.69000000
   O    107.57000000    47.41000000    89.76000000
   C    109.97000000    48.11000000    91.46000000
   C    111.01000000    48.64000000    90.48000000
   N    111.02000000    49.96000000    90.25000000
   O    111.87000000    47.90000000    90.01000000
   H    107.70000000    46.52000000    92.18000000
   H    110.28000000    46.08000000    90.83000000
   H    110.36000000    48.09000000    92.47000000
   H    109.10000000    48.77000000    91.44000000
   H    110.33000000    50.53000000    90.72000000
   H    111.76000000    50.39000000    89.72000000
   N    109.07000000    46.34000000    88.53000000
   C    110.17000000    45.41000000    88.34000000
   C    109.84000000    44.00000000    88.81000000
   O    109.49000000    43.87000000    89.99000000
   H    108.46000000    46.53000000    87.75000000
   H    111.06000000    45.82000000    88.79000000
   H    110.34000000    45.36000000    87.26000000
   N    109.97000000    43.05000000    87.89000000
   C    109.73000000    41.64000000    88.06000000
   C    110.96000000    40.80000000    87.75000000
   O    111.83000000    41.28000000    87.02000000
   C    108.53000000    41.25000000    87.19000000
   C    107.20000000    41.83000000    87.60000000
   C    106.70000000    41.59000000    88.89000000
   C    106.66000000    42.88000000    86.85000000
   C    105.52000000    42.24000000    89.27000000
   C    105.48000000    43.52000000    87.24000000
   C    104.94000000    43.28000000    88.52000000
   O    103.88000000    43.97000000    89.03000000
   H    110.25000000    43.33000000    86.96000000
   H    109.44000000    41.49000000    89.10000000
   H    108.35000000    40.18000000    87.26000000
   H    108.74000000    41.35000000    86.13000000
   H    107.18000000    40.87000000    89.53000000
   H    107.15000000    43.06000000    85.90000000
   H    105.05000000    41.92000000    90.19000000
   H    105.07000000    44.32000000    86.64000000
   H    103.55000000    44.57000000    88.36000000
   N    111.11000000    39.60000000    88.30000000
   C    112.05000000    38.56000000    87.92000000
   C    111.33000000    37.28000000    87.52000000
   O    111.84000000    36.61000000    86.62000000
   C    113.00000000    38.39000000    89.10000000
   C    112.33000000    37.84000000    90.35000000
   C    114.15000000    37.50000000    88.65000000
   C    113.25000000    37.92000000    91.57000000
   H    110.36000000    39.28000000    88.90000000
   H    112.55000000    38.94000000    87.03000000
   H    113.37000000    39.37000000    89.40000000
   H    112.03000000    36.81000000    90.14000000
   H    111.49000000    38.49000000    90.61000000
   H    114.96000000    37.48000000    89.38000000
   H    113.80000000    36.48000000    88.47000000
   H    114.57000000    37.90000000    87.72000000
   H    113.83000000    38.84000000    91.52000000
   H    112.57000000    38.03000000    92.41000000
   H    113.98000000    37.12000000    91.68000000
   N    110.19000000    36.84000000    88.05000000
   C    109.35000000    35.77000000    87.57000000
   C    109.40000000    34.47000000    88.36000000
   O    108.86000000    33.48000000    87.89000000
   C    107.93000000    36.30000000    87.37000000
   O    107.45000000    36.87000000    88.56000000
   H    109.82000000    37.47000000    88.76000000
   H    109.69000000    35.59000000    86.55000000
   H    107.33000000    35.42000000    87.13000000
   H    107.95000000    37.03000000    86.56000000
   H    108.16000000    37.44000000    88.86000000
   N    109.92000000    34.51000000    89.59000000
   C    110.02000000    33.35000000    90.45000000
   C    108.98000000    33.16000000    91.54000000
   O    109.30000000    33.15000000    92.73000000
   C    111.42000000    33.39000000    91.05000000
   H    110.36000000    35.38000000    89.87000000
   H    109.91000000    32.43000000    89.87000000
   H    112.17000000    33.15000000    90.30000000
   H    111.67000000    34.39000000    91.42000000
   H    111.50000000    32.68000000    91.87000000
   N    107.71000000    33.05000000    91.14000000
   C    106.54000000    33.01000000    92.00000000
   C    106.40000000    34.26000000    92.86000000
   O    106.18000000    34.20000000    94.07000000
   C    106.59000000    31.65000000    92.70000000
   H    107.54000000    32.88000000    90.16000000
   H    105.60000000    33.03000000    91.46000000
   H    106.61000000    30.91000000    91.90000000
   H    107.45000000    31.52000000    93.35000000
   H    105.73000000    31.43000000    93.33000000
   N    106.42000000    35.44000000    92.24000000
   C    106.29000000    36.69000000    92.95000000
   C    104.83000000    37.01000000    93.24000000
   O    104.59000000    37.80000000    94.14000000
   C    106.91000000    37.73000000    92.01000000
   C    108.43000000    37.68000000    91.89000000
   C    108.98000000    38.80000000    91.03000000
   O    109.11000000    39.88000000    91.65000000
   O    108.97000000    38.63000000    89.79000000
   H    106.70000000    35.45000000    91.27000000
   H    106.78000000    36.62000000    93.92000000
   H    106.57000000    38.74000000    92.24000000
   H    106.53000000    37.54000000    91.01000000
   H    108.77000000    36.72000000    91.50000000
   H    108.85000000    37.76000000    92.89000000
   N    103.86000000    36.30000000    92.66000000
   C    102.44000000    36.59000000    92.70000000
   H    101.90000000    35.71200000    93.05500000
   H    102.25800000    37.42600000    93.37600000
   H    102.09300000    36.84900000    91.70000000
   H    104.16000000    35.73000000    91.88000000
  Ca    107.17800000    42.72000000    94.35000000
   O    108.45800000    40.33000000    94.49000000
   H    109.19800000    39.97000000    94.98000000
   H    108.44800000    39.82000000    93.67000000
   O    105.22800000    40.85000000    93.82000000
   H    105.01800000    39.96000000    94.12000000
   H    104.40800000    41.19000000    93.48000000
   O    105.44800000    44.60000000    95.63000000
   H    104.61800000    45.06000000    95.74000000
   H    105.85800000    44.64000000    96.50000000
   O    108.53800000    42.26000000    92.12000000
   H    108.80800000    41.35000000    92.04000000
   H    108.82800000    42.68000000    91.32000000
   O    105.84800000    43.75000000    92.38000000
   H    105.46800000    44.61000000    92.20000000
   H    106.13800000    43.44000000    91.52000000
   O    106.29800000    41.27000000    96.77000000
   H    106.86800000    41.70000000    97.41000000
   H    106.18800000    40.38000000    97.10000000

Ca 1.00



