%chk=loop3.apoCaM-CA-Ng.Init293.run43.water4.chk
%nprocshared=20
%mem=10GB
%nosave
#b3lyp/svp scf=(tight,noincore,xqc) Test 
#IOP(5/87=12) Density=Current Pop=(MK,readradii) iop(6/33=2) iop(6/42=6)

loop3.apoCaM-CA-Ng.Init293.run43.water4 

   0  1 
   C     36.29000000    72.33000000   -16.33000000
   C     35.57000000    71.70000000   -17.51000000
   O     35.39000000    70.49000000   -17.68000000
   H     37.19300000    72.83000000   -16.68100000
   H     35.63500000    73.05800000   -15.85000000
   H     36.56000000    71.55500000   -15.61300000
   N     35.23000000    72.58000000   -18.45000000
   C     34.72000000    72.18000000   -19.75000000
   C     33.29000000    71.67000000   -19.75000000
   O     32.40000000    72.08000000   -19.01000000
   C     35.09000000    73.25000000   -20.77000000
   C     34.42000000    74.59000000   -20.49000000
   O     34.60000000    75.18000000   -19.40000000
   O     33.80000000    75.13000000   -21.43000000
   H     35.23000000    73.56000000   -18.19000000
   H     35.29000000    71.30000000   -20.07000000
   H     34.77000000    72.94000000   -21.77000000
   H     36.17000000    73.38000000   -20.78000000
   N     33.14000000    70.56000000   -20.48000000
   C     32.09000000    69.56000000   -20.58000000
   C     30.71000000    70.13000000   -20.87000000
   O     29.75000000    69.37000000   -20.82000000
   C     32.18000000    68.61000000   -19.39000000
   C     33.56000000    67.95000000   -19.31000000
   C     33.60000000    67.08000000   -18.05000000
   C     35.03000000    66.66000000   -17.77000000
   N     35.99000000    67.68000000   -17.32000000
   H     33.96000000    70.37000000   -21.04000000
   H     32.41000000    69.03000000   -21.48000000
   H     31.37000000    67.88000000   -19.45000000
   H     32.03000000    69.10000000   -18.43000000
   H     34.34000000    68.71000000   -19.26000000
   H     33.74000000    67.44000000   -20.25000000
   H     32.92000000    66.24000000   -18.20000000
   H     33.20000000    67.53000000   -17.14000000
   H     35.34000000    66.11000000   -18.66000000
   H     34.90000000    65.90000000   -17.00000000
   H     35.77000000    68.11000000   -16.43000000
   H     36.90000000    67.25000000   -17.16000000
   H     36.05000000    68.47000000   -17.94000000
   N     30.55000000    71.45000000   -21.04000000
   C     29.32000000    72.14000000   -21.39000000
   C     29.45000000    73.13000000   -22.54000000
   O     30.56000000    73.52000000   -22.90000000
   C     28.85000000    72.90000000   -20.14000000
   C     27.39000000    73.29000000   -20.22000000
   O     27.01000000    74.17000000   -19.41000000
   O     26.56000000    72.80000000   -21.02000000
   H     31.39000000    72.01000000   -21.05000000
   H     28.65000000    71.36000000   -21.72000000
   H     29.46000000    73.77000000   -19.93000000
   H     28.96000000    72.30000000   -19.24000000
   N     28.39000000    73.61000000   -23.19000000
   C     28.33000000    74.69000000   -24.16000000
   C     27.12000000    75.60000000   -24.21000000
   O     26.04000000    75.07000000   -24.46000000
   H     27.50000000    73.28000000   -22.87000000
   H     28.56000000    74.37000000   -25.18000000
   H     29.19000000    75.30000000   -23.87000000
   N     27.32000000    76.88000000   -23.89000000
   C     26.22000000    77.76000000   -23.55000000
   C     25.99000000    78.89000000   -24.54000000
   O     25.08000000    79.67000000   -24.26000000
   C     26.42000000    78.29000000   -22.14000000
   C     26.49000000    77.14000000   -21.14000000
   N     27.72000000    76.74000000   -20.83000000
   O     25.53000000    76.43000000   -20.85000000
   H     28.23000000    77.22000000   -23.63000000
   H     25.31000000    77.16000000   -23.49000000
   H     25.60000000    78.97000000   -21.90000000
   H     27.37000000    78.83000000   -22.08000000
   H     28.58000000    77.26000000   -20.97000000
   H     27.72000000    75.89000000   -20.29000000
   N     26.78000000    79.04000000   -25.61000000
   C     26.69000000    80.14000000   -26.56000000
   C     26.88000000    81.49000000   -25.88000000
   O     27.54000000    81.60000000   -24.85000000
   H     27.59000000    78.45000000   -25.72000000
   H     25.71000000    80.21000000   -27.04000000
   H     27.51000000    80.05000000   -27.27000000
   N     26.03000000    82.47000000   -26.18000000
   C     25.98000000    83.78000000   -25.56000000
   C     25.63000000    83.89000000   -24.09000000
   O     25.42000000    85.03000000   -23.67000000
   C     27.20000000    84.59000000   -26.00000000
   C     27.50000000    84.56000000   -27.47000000
   C     28.57000000    83.80000000   -27.95000000
   C     26.86000000    85.41000000   -28.39000000
   C     29.09000000    83.86000000   -29.25000000
   C     27.32000000    85.47000000   -29.71000000
   C     28.42000000    84.71000000   -30.16000000
   O     28.87000000    84.88000000   -31.43000000
   H     25.29000000    82.30000000   -26.85000000
   H     25.16000000    84.22000000   -26.14000000
   H     28.07000000    84.24000000   -25.44000000
   H     27.09000000    85.62000000   -25.68000000
   H     29.00000000    83.07000000   -27.28000000
   H     25.98000000    85.98000000   -28.13000000
   H     29.93000000    83.23000000   -29.48000000
   H     26.73000000    86.02000000   -30.43000000
   H     28.38000000    85.58000000   -31.88000000
   N     25.47000000    82.74000000   -23.42000000
   C     25.10000000    82.55000000   -22.03000000
   C     23.66000000    82.95000000   -21.76000000
   O     22.90000000    82.32000000   -21.03000000
   C     26.18000000    83.15000000   -21.12000000
   C     27.41000000    82.26000000   -21.29000000
   C     25.74000000    83.03000000   -19.66000000
   C     28.49000000    82.62000000   -20.28000000
   H     25.75000000    81.90000000   -23.90000000
   H     25.13000000    81.47000000   -21.91000000
   H     26.39000000    84.18000000   -21.41000000
   H     27.91000000    82.47000000   -22.24000000
   H     27.10000000    81.23000000   -21.13000000
   H     25.67000000    82.01000000   -19.28000000
   H     26.52000000    83.47000000   -19.05000000
   H     24.84000000    83.57000000   -19.36000000
   H     28.65000000    83.70000000   -20.22000000
   H     28.28000000    82.19000000   -19.30000000
   H     29.43000000    82.22000000   -20.65000000
   N     23.30000000    84.17000000   -22.16000000
   C     21.97000000    84.74000000   -22.11000000
   C     21.42000000    84.89000000   -20.70000000
   O     20.19000000    84.87000000   -20.59000000
   C     21.87000000    86.03000000   -22.92000000
   O     22.59000000    87.11000000   -22.36000000
   H     23.91000000    84.79000000   -22.68000000
   H     21.27000000    84.09000000   -22.63000000
   H     20.80000000    86.23000000   -22.92000000
   H     22.18000000    85.83000000   -23.95000000
   H     23.31000000    86.80000000   -21.80000000
   N     22.23000000    85.15000000   -19.67000000
   C     21.82000000    85.18000000   -18.28000000
   C     21.04000000    83.96000000   -17.83000000
   O     20.30000000    84.01000000   -16.84000000
   C     21.14000000    86.52000000   -18.00000000
   H     23.18000000    85.46000000   -19.83000000
   H     22.75000000    85.12000000   -17.71000000
   H     20.09000000    86.56000000   -18.27000000
   H     21.31000000    86.76000000   -16.95000000
   H     21.66000000    87.26000000   -18.61000000
   N     21.33000000    82.78000000   -18.38000000
   C     20.65000000    81.53000000   -18.11000000
   C     21.58000000    80.40000000   -17.72000000
   O     22.75000000    80.36000000   -18.12000000
   C     19.80000000    81.19000000   -19.33000000
   H     22.04000000    82.83000000   -19.10000000
   H     19.92000000    81.77000000   -17.33000000
   H     20.39000000    81.49000000   -20.20000000
   H     19.58000000    80.13000000   -19.33000000
   H     18.85000000    81.72000000   -19.30000000
   N     21.03000000    79.47000000   -16.93000000
   C     21.71000000    78.42000000   -16.20000000
   C     22.81000000    78.89000000   -15.25000000
   O     23.54000000    78.01000000   -14.81000000
   C     22.22000000    77.31000000   -17.12000000
   C     21.30000000    76.90000000   -18.26000000
   C     22.02000000    75.93000000   -19.18000000
   O     21.90000000    74.71000000   -18.95000000
   O     22.64000000    76.34000000   -20.19000000
   H     20.10000000    79.73000000   -16.62000000
   H     20.92000000    77.97000000   -15.61000000
   H     22.52000000    76.44000000   -16.54000000
   H     23.12000000    77.68000000   -17.61000000
   H     20.96000000    77.76000000   -18.84000000
   H     20.42000000    76.38000000   -17.88000000
   N     22.90000000    80.17000000   -14.89000000
   C     23.92000000    80.72000000   -14.03000000
   H     24.77200000    81.03400000   -14.63300000
   H     23.51900000    81.58000000   -13.49400000
   H     24.24100000    79.96200000   -13.31500000
   H     22.24000000    80.82000000   -15.31000000
  Ca     24.24000000    74.16000000   -20.00100000
   O     24.06000000    74.14000000   -22.60100000
   H     23.68000000    73.46000000   -23.16100000
   H     24.78000000    74.49000000   -23.11100000
   O     24.98000000    75.70000000   -17.91100000
   H     25.09000000    76.65000000   -17.96100000
   H     25.63000000    75.42000000   -17.27100000
   O     24.51000000    72.13000000   -18.32100000
   H     25.27000000    71.56000000   -18.48100000
   H     24.25000000    71.92000000   -17.42100000
   O     22.80000000    71.98000000   -21.01100000
   H     22.00000000    71.52000000   -20.72100000
   H     23.23000000    71.35000000   -21.59100000

Ca 1.00



