%chk=loop3.apoCaM-CA-Ng.Init31.run81.water5.chk
%nprocshared=20
%mem=10GB
%nosave
#b3lyp/svp scf=(tight,noincore,xqc) Test 
#IOP(5/87=12) Density=Current Pop=(MK,readradii) iop(6/33=2) iop(6/42=6)

loop3.apoCaM-CA-Ng.Init31.run81.water5 

   0  1 
   C     89.37000000    69.11000000    22.82000000
   C     88.76000000    67.89000000    22.14000000
   O     88.31000000    66.94000000    22.78000000
   H     90.29700000    69.38200000    22.31400000
   H     88.67000000    69.94400000    22.76700000
   H     89.58100000    68.87700000    23.86400000
   N     88.86000000    67.97000000    20.81000000
   C     88.83000000    66.84000000    19.91000000
   C     89.97000000    65.91000000    20.30000000
   O     91.00000000    66.37000000    20.79000000
   C     89.13000000    67.35000000    18.50000000
   C     90.14000000    68.48000000    18.43000000
   O     91.34000000    68.23000000    18.15000000
   O     89.70000000    69.63000000    18.66000000
   H     89.15000000    68.86000000    20.43000000
   H     87.88000000    66.31000000    19.95000000
   H     88.21000000    67.71000000    18.05000000
   H     89.50000000    66.54000000    17.87000000
   N     89.88000000    64.60000000    20.04000000
   C     90.99000000    63.69000000    20.23000000
   C     91.03000000    63.12000000    21.64000000
   O     92.10000000    62.78000000    22.12000000
   C     91.05000000    62.58000000    19.19000000
   C     89.98000000    61.49000000    19.10000000
   C     90.21000000    60.44000000    18.02000000
   C     89.19000000    59.30000000    18.05000000
   N     89.54000000    58.22000000    17.12000000
   H     89.02000000    64.28000000    19.61000000
   H     91.93000000    64.20000000    20.05000000
   H     92.08000000    62.23000000    19.32000000
   H     90.91000000    63.14000000    18.27000000
   H     88.96000000    61.87000000    19.01000000
   H     90.00000000    61.06000000    20.10000000
   H     91.15000000    59.88000000    18.05000000
   H     90.15000000    61.00000000    17.09000000
   H     88.22000000    59.69000000    17.76000000
   H     89.07000000    58.85000000    19.04000000
   H     89.65000000    58.49000000    16.15000000
   H     90.30000000    57.61000000    17.38000000
   H     88.77000000    57.57000000    17.09000000
   N     89.89000000    62.94000000    22.32000000
   C     89.75000000    62.31000000    23.61000000
   C     89.65000000    60.80000000    23.52000000
   O     88.67000000    60.22000000    24.00000000
   C     88.61000000    63.03000000    24.33000000
   C     87.29000000    63.21000000    23.60000000
   O     86.35000000    63.75000000    24.24000000
   O     87.02000000    62.81000000    22.45000000
   H     89.06000000    63.33000000    21.89000000
   H     90.66000000    62.43000000    24.20000000
   H     88.94000000    64.04000000    24.57000000
   H     88.39000000    62.62000000    25.32000000
   N     90.71000000    60.23000000    22.94000000
   C     90.72000000    58.81000000    22.65000000
   C     89.72000000    58.41000000    21.56000000
   O     88.81000000    59.16000000    21.20000000
   H     91.50000000    60.80000000    22.67000000
   H     90.53000000    58.15000000    23.49000000
   H     91.71000000    58.50000000    22.33000000
   N     89.75000000    57.26000000    20.90000000
   C     90.64000000    56.16000000    21.20000000
   C     89.93000000    55.19000000    22.14000000
   O     88.71000000    55.08000000    22.15000000
   C     91.09000000    55.57000000    19.87000000
   C     91.97000000    56.49000000    19.02000000
   N     91.83000000    56.41000000    17.70000000
   O     92.56000000    57.47000000    19.47000000
   H     88.92000000    56.95000000    20.40000000
   H     91.53000000    56.56000000    21.69000000
   H     90.29000000    55.19000000    19.24000000
   H     91.73000000    54.73000000    20.13000000
   H     91.40000000    55.54000000    17.44000000
   H     92.39000000    56.99000000    17.09000000
   N     90.65000000    54.38000000    22.92000000
   C     92.09000000    54.33000000    23.12000000
   C     92.59000000    55.37000000    24.11000000
   O     92.76000000    56.53000000    23.75000000
   H     90.18000000    53.54000000    23.20000000
   H     92.64000000    54.58000000    22.21000000
   H     92.51000000    53.35000000    23.36000000
   N     92.87000000    54.94000000    25.35000000
   C     93.29000000    55.80000000    26.44000000
   C     94.56000000    55.30000000    27.11000000
   O     94.57000000    54.20000000    27.66000000
   C     92.15000000    56.00000000    27.43000000
   C     90.77000000    55.95000000    26.82000000
   C     90.09000000    57.10000000    26.40000000
   C     90.20000000    54.69000000    26.66000000
   C     88.94000000    56.91000000    25.62000000
   C     89.00000000    54.51000000    25.96000000
   C     88.30000000    55.65000000    25.53000000
   O     87.12000000    55.53000000    24.87000000
   H     92.56000000    54.05000000    25.71000000
   H     93.56000000    56.74000000    25.97000000
   H     92.22000000    56.97000000    27.93000000
   H     92.25000000    55.21000000    28.17000000
   H     90.59000000    58.04000000    26.57000000
   H     90.70000000    53.78000000    26.95000000
   H     88.48000000    57.76000000    25.15000000
   H     88.57000000    53.54000000    25.76000000
   H     86.87000000    54.64000000    24.62000000
   N     95.62000000    56.11000000    27.08000000
   C     96.97000000    55.66000000    27.36000000
   C     97.84000000    56.74000000    27.99000000
   O     98.78000000    56.38000000    28.70000000
   C     97.62000000    55.09000000    26.11000000
   C     97.36000000    53.59000000    25.99000000
   C     97.23000000    55.76000000    24.79000000
   C     97.89000000    52.86000000    24.76000000
   H     95.60000000    57.03000000    26.66000000
   H     96.85000000    54.86000000    28.09000000
   H     98.70000000    55.14000000    26.26000000
   H     96.30000000    53.36000000    25.91000000
   H     97.76000000    53.14000000    26.90000000
   H     97.23000000    56.85000000    24.83000000
   H     97.90000000    55.52000000    23.97000000
   H     96.27000000    55.35000000    24.47000000
   H     97.97000000    51.81000000    25.03000000
   H     97.16000000    52.97000000    23.95000000
   H     98.87000000    53.29000000    24.52000000
   N     97.78000000    58.01000000    27.59000000
   C     98.71000000    59.04000000    28.01000000
   C     98.89000000    60.19000000    27.03000000
   O     99.74000000    61.04000000    27.31000000
   C     98.23000000    59.54000000    29.37000000
   O     97.17000000    60.44000000    29.16000000
   H     97.10000000    58.23000000    26.88000000
   H     99.69000000    58.65000000    28.31000000
   H     99.07000000    60.08000000    29.82000000
   H     97.93000000    58.76000000    30.07000000
   H     96.46000000    60.11000000    28.60000000
   N     98.18000000    60.25000000    25.90000000
   C     97.99000000    61.37000000    25.01000000
   C     97.23000000    62.54000000    25.63000000
   O     96.60000000    63.24000000    24.84000000
   C     97.18000000    60.83000000    23.84000000
   H     97.49000000    59.51000000    25.82000000
   H     98.96000000    61.69000000    24.61000000
   H     97.15000000    61.48000000    22.96000000
   H     97.69000000    59.91000000    23.57000000
   H     96.14000000    60.59000000    24.07000000
   N     97.28000000    62.71000000    26.95000000
   C     96.46000000    63.66000000    27.68000000
   C     94.96000000    63.42000000    27.55000000
   O     94.21000000    64.32000000    27.93000000
   C     96.82000000    65.09000000    27.29000000
   H     97.97000000    62.18000000    27.47000000
   H     96.72000000    63.56000000    28.73000000
   H     96.41000000    65.83000000    27.98000000
   H     97.90000000    65.10000000    27.41000000
   H     96.62000000    65.41000000    26.27000000
   N     94.51000000    62.24000000    27.13000000
   C     93.10000000    61.93000000    26.96000000
   C     92.50000000    61.60000000    28.32000000
   O     91.33000000    61.86000000    28.60000000
   C     92.88000000    60.93000000    25.83000000
   C     93.45000000    59.55000000    26.17000000
   C     94.93000000    59.38000000    26.49000000
   O     95.31000000    59.66000000    27.65000000
   O     95.57000000    58.69000000    25.68000000
   H     95.13000000    61.45000000    27.03000000
   H     92.54000000    62.83000000    26.69000000
   H     93.29000000    61.41000000    24.94000000
   H     91.82000000    60.83000000    25.63000000
   H     93.24000000    58.92000000    25.31000000
   H     92.86000000    59.22000000    27.02000000
   N     93.29000000    60.95000000    29.17000000
   C     92.78000000    60.49000000    30.44000000
   H     91.76000000    60.12700000    30.31100000
   H     93.40900000    59.68200000    30.81300000
   H     92.78400000    61.31400000    31.15400000
   H     94.25000000    60.71000000    28.93000000
  Ca     84.33000000    62.56000000    23.05000000
   O     84.90000000    63.52000000    20.65000000
   H     84.59000000    63.14000000    19.83000000
   H     85.85000000    63.60000000    20.53000000
   O     81.99000000    61.46000000    23.73000000
   H     81.14000000    61.46000000    23.30000000
   H     81.88000000    60.89000000    24.49000000
   O     83.18000000    60.90000000    21.13000000
   H     82.41000000    60.33000000    21.12000000
   H     83.07000000    61.48000000    20.37000000
   O     84.22000000    62.18000000    25.88000000
   H     83.66000000    61.41000000    25.96000000
   H     84.18000000    62.59000000    26.74000000
   O     85.81000000    60.24000000    23.63000000
   H     86.73000000    60.42000000    23.78000000
   H     85.75000000    59.29000000    23.58000000

Ca 1.00



