%chk=loop4.apoCaM-CA-Ng.Init293.run4.water4.chk
%nprocshared=20
%mem=10GB
%nosave
#b3lyp/svp scf=(tight,noincore,xqc) Test 
#IOP(5/87=12) Density=Current Pop=(MK,readradii) iop(6/33=2) iop(6/42=6)

loop4.apoCaM-CA-Ng.Init293.run4.water4 

   -3  1 
   C     44.11000000    50.68000000    66.80000000
   C     44.67000000    51.08000000    68.16000000
   O     45.75000000    50.59000000    68.48000000
   H     43.22200000    51.27400000    66.58500000
   H     44.86100000    50.85800000    66.03000000
   H     43.84500000    49.62300000    66.81200000
   N     44.06000000    51.99000000    68.92000000
   C     44.48000000    52.66000000    70.14000000
   C     45.91000000    53.19000000    70.23000000
   O     46.88000000    52.47000000    70.46000000
   C     44.05000000    51.85000000    71.36000000
   C     44.42000000    50.38000000    71.47000000
   O     43.67000000    49.45000000    71.10000000
   O     45.59000000    50.13000000    71.83000000
   H     43.24000000    52.37000000    68.47000000
   H     43.82000000    53.53000000    70.19000000
   H     42.96000000    51.81000000    71.29000000
   H     44.29000000    52.38000000    72.28000000
   N     46.04000000    54.50000000    70.06000000
   C     47.29000000    55.22000000    70.21000000
   C     47.83000000    55.23000000    71.63000000
   O     48.96000000    54.84000000    71.92000000
   C     48.42000000    54.91000000    69.24000000
   C     49.33000000    56.14000000    69.14000000
   C     47.76000000    54.64000000    67.89000000
   C     50.80000000    55.96000000    68.81000000
   H     45.19000000    55.00000000    69.86000000
   H     47.02000000    56.24000000    69.94000000
   H     49.05000000    54.09000000    69.57000000
   H     49.39000000    56.51000000    70.16000000
   H     48.89000000    56.81000000    68.40000000
   H     48.43000000    54.98000000    67.11000000
   H     47.61000000    53.56000000    67.85000000
   H     46.82000000    55.20000000    67.86000000
   H     50.91000000    55.53000000    67.81000000
   H     51.30000000    56.93000000    68.81000000
   H     51.38000000    55.37000000    69.52000000
   N     46.92000000    55.45000000    72.59000000
   C     47.21000000    55.73000000    73.98000000
   C     47.71000000    54.54000000    74.79000000
   O     47.13000000    53.46000000    74.83000000
   C     46.05000000    56.47000000    74.64000000
   C     45.62000000    57.65000000    73.78000000
   O     46.03000000    58.77000000    74.14000000
   O     45.04000000    57.52000000    72.68000000
   H     46.00000000    55.70000000    72.24000000
   H     47.94000000    56.54000000    74.02000000
   H     46.25000000    56.83000000    75.65000000
   H     45.22000000    55.77000000    74.68000000
   N     48.75000000    54.69000000    75.61000000
   C     49.30000000    55.96000000    76.04000000
   C     50.36000000    55.73000000    77.11000000
   O     50.01000000    55.37000000    78.23000000
   H     48.93000000    53.86000000    76.16000000
   H     48.50000000    56.56000000    76.46000000
   H     49.65000000    56.53000000    75.18000000
   N     51.68000000    55.91000000    76.94000000
   C     52.37000000    56.07000000    75.68000000
   C     52.15000000    54.90000000    74.73000000
   O     51.98000000    53.77000000    75.18000000
   C     53.88000000    56.30000000    75.80000000
   C     54.24000000    57.28000000    76.90000000
   O     54.17000000    58.50000000    76.64000000
   O     54.28000000    56.85000000    78.08000000
   H     52.29000000    55.88000000    77.75000000
   H     51.96000000    56.97000000    75.21000000
   H     54.25000000    56.57000000    74.81000000
   H     54.37000000    55.38000000    76.10000000
   N     51.97000000    55.07000000    73.42000000
   C     51.86000000    56.23000000    72.57000000
   C     53.11000000    56.84000000    71.96000000
   O     53.01000000    57.91000000    71.36000000
   H     52.02000000    54.23000000    72.86000000
   H     51.28000000    57.00000000    73.08000000
   H     51.29000000    55.92000000    71.69000000
   N     54.25000000    56.18000000    72.18000000
   C     55.55000000    56.72000000    71.84000000
   C     56.15000000    56.14000000    70.57000000
   O     57.25000000    56.57000000    70.22000000
   C     56.47000000    56.73000000    73.06000000
   C     56.65000000    55.39000000    73.78000000
   C     57.34000000    55.67000000    75.10000000
   N     57.71000000    54.61000000    75.82000000
   O     57.55000000    56.77000000    75.62000000
   H     54.11000000    55.20000000    72.41000000
   H     55.36000000    57.79000000    71.68000000
   H     56.10000000    57.53000000    73.68000000
   H     57.48000000    57.04000000    72.77000000
   H     57.25000000    54.68000000    73.21000000
   H     55.68000000    54.97000000    74.05000000
   H     57.53000000    53.65000000    75.56000000
   H     57.97000000    54.88000000    76.75000000
   N     55.54000000    55.21000000    69.84000000
   C     55.98000000    54.78000000    68.53000000
   C     56.77000000    53.48000000    68.66000000
   O     56.18000000    52.55000000    69.19000000
   C     54.78000000    54.72000000    67.60000000
   C     55.11000000    54.14000000    66.23000000
   C     54.07000000    56.06000000    67.42000000
   H     54.64000000    54.83000000    70.12000000
   H     56.64000000    55.57000000    68.18000000
   H     54.09000000    54.01000000    68.07000000
   H     56.02000000    54.63000000    65.88000000
   H     55.33000000    53.09000000    66.37000000
   H     54.33000000    54.32000000    65.49000000
   H     54.66000000    56.85000000    66.95000000
   H     53.22000000    55.99000000    66.75000000
   H     53.67000000    56.38000000    68.39000000
   N     57.94000000    53.37000000    68.03000000
   C     58.86000000    52.25000000    67.96000000
   C     58.28000000    51.11000000    67.15000000
   O     59.08000000    50.64000000    66.34000000
   C     59.36000000    51.73000000    69.30000000
   C     59.98000000    52.85000000    70.12000000
   N     59.39000000    53.39000000    71.19000000
   O     61.07000000    53.34000000    69.82000000
   H     58.29000000    54.27000000    67.71000000
   H     59.73000000    52.58000000    67.39000000
   H     60.09000000    50.93000000    69.18000000
   H     58.59000000    51.29000000    69.94000000
   H     58.48000000    53.09000000    71.51000000
   H     59.85000000    54.16000000    71.66000000
   N     57.03000000    50.66000000    67.30000000
   C     56.49000000    49.45000000    66.73000000
   C     54.97000000    49.37000000    66.61000000
   O     54.27000000    49.93000000    67.45000000
   C     57.08000000    48.26000000    67.48000000
   C     57.29000000    48.36000000    68.98000000
   C     56.21000000    48.62000000    69.83000000
   C     58.57000000    48.24000000    69.53000000
   C     56.37000000    48.74000000    71.22000000
   C     58.76000000    48.45000000    70.90000000
   C     57.67000000    48.69000000    71.76000000
   O     57.82000000    48.86000000    73.10000000
   H     56.55000000    50.96000000    68.14000000
   H     56.77000000    49.51000000    65.67000000
   H     58.06000000    48.14000000    67.01000000
   H     56.47000000    47.37000000    67.32000000
   H     55.21000000    48.74000000    69.44000000
   H     59.43000000    47.98000000    68.93000000
   H     55.51000000    48.99000000    71.82000000
   H     59.77000000    48.33000000    71.25000000
   H     58.72000000    48.95000000    73.41000000
   N     54.43000000    48.70000000    65.59000000
   C     53.04000000    48.35000000    65.42000000
   C     52.00000000    49.42000000    65.14000000
   O     51.02000000    49.12000000    64.46000000
   C     52.62000000    47.46000000    66.58000000
   C     53.52000000    46.23000000    66.47000000
   C     53.29000000    45.15000000    67.52000000
   O     53.70000000    45.32000000    68.69000000
   O     52.63000000    44.15000000    67.18000000
   H     55.07000000    48.31000000    64.91000000
   H     53.01000000    47.68000000    64.56000000
   H     51.58000000    47.17000000    66.43000000
   H     52.69000000    47.99000000    67.53000000
   H     54.57000000    46.51000000    66.57000000
   H     53.44000000    45.75000000    65.50000000
   N     52.19000000    50.61000000    65.71000000
   C     51.16000000    51.63000000    65.59000000
   C     51.35000000    52.24000000    64.21000000
   O     50.52000000    51.94000000    63.35000000
   C     51.13000000    52.65000000    66.72000000
   C     51.13000000    52.12000000    68.15000000
   C     49.90000000    51.47000000    68.78000000
   O     49.92000000    50.94000000    69.91000000
   O     48.90000000    51.22000000    68.07000000
   H     53.09000000    50.73000000    66.15000000
   H     50.21000000    51.09000000    65.64000000
   H     50.27000000    53.31000000    66.62000000
   H     52.09000000    53.17000000    66.59000000
   H     51.37000000    52.96000000    68.81000000
   H     51.99000000    51.46000000    68.22000000
   N     52.41000000    52.97000000    63.86000000
   C     52.74000000    53.31000000    62.50000000
   H     53.77700000    53.04100000    62.30000000
   H     52.08600000    52.76500000    61.82000000
   H     52.60800000    54.38200000    62.35100000
   H     53.08000000    53.29000000    64.54000000
  Ca     47.55000000    49.97000000    70.31000000
   O     48.32000000    51.44000000    72.79000000
   H     49.07000000    51.70000000    73.32000000
   H     47.56000000    51.85000000    73.22000000
   O     46.08000000    47.70000000    70.39000000
   H     45.68000000    47.05000000    69.81000000
   H     45.33000000    48.11000000    70.84000000
   O     49.27000000    48.47000000    71.66000000
   H     50.16000000    48.42000000    71.31000000
   H     49.10000000    47.59000000    72.02000000
   O     48.44000000    48.53000000    68.19000000
   H     48.70000000    49.29000000    67.68000000
   H     48.22000000    47.87000000    67.53000000

Ca 1.00



