%chk=loop4.apoCaM-CA-Ng.Init295.run60.water4.chk
%nprocshared=20
%mem=10GB
%nosave
#b3lyp/svp scf=(tight,noincore,xqc) Test 
#IOP(5/87=12) Density=Current Pop=(MK,readradii) iop(6/33=2) iop(6/42=6)

loop4.apoCaM-CA-Ng.Init295.run60.water4 

   -3  1 
   C     83.93000000    60.26000000    12.82000000
   C     84.83000000    59.19000000    12.23000000
   O     85.63000000    58.55000000    12.90000000
   H     82.97700000    59.81500000    13.10600000
   H     84.40700000    60.69200000    13.70000000
   H     83.75800000    61.04000000    12.07900000
   N     84.83000000    59.02000000    10.90000000
   C     85.65000000    58.12000000    10.11000000
   C     85.53000000    56.65000000    10.49000000
   O     86.45000000    55.85000000    10.35000000
   C     87.11000000    58.56000000    10.09000000
   C     87.36000000    60.06000000    10.03000000
   O     88.00000000    60.64000000    10.93000000
   O     86.93000000    60.80000000     9.12000000
   H     84.23000000    59.58000000    10.31000000
   H     85.21000000    58.24000000     9.12000000
   H     87.57000000    58.21000000     9.16000000
   H     87.69000000    58.09000000    10.88000000
   N     84.34000000    56.29000000    10.96000000
   C     84.09000000    54.96000000    11.49000000
   C     83.83000000    54.04000000    10.31000000
   O     82.97000000    54.32000000     9.47000000
   C     82.90000000    54.88000000    12.44000000
   C     82.92000000    55.92000000    13.55000000
   C     82.55000000    53.52000000    13.05000000
   C     81.61000000    56.31000000    14.23000000
   H     83.63000000    57.01000000    10.92000000
   H     85.01000000    54.69000000    12.01000000
   H     82.05000000    55.08000000    11.80000000
   H     83.24000000    56.87000000    13.12000000
   H     83.59000000    55.63000000    14.37000000
   H     83.33000000    53.25000000    13.77000000
   H     81.61000000    53.60000000    13.59000000
   H     82.47000000    52.81000000    12.22000000
   H     81.85000000    56.82000000    15.17000000
   H     81.13000000    57.11000000    13.68000000
   H     81.04000000    55.48000000    14.64000000
   N     84.56000000    52.94000000    10.10000000
   C     85.68000000    52.43000000    10.87000000
   C     87.01000000    52.85000000    10.27000000
   O     88.00000000    53.01000000    10.98000000
   C     85.57000000    50.93000000    11.11000000
   C     84.29000000    50.58000000    11.86000000
   O     84.32000000    50.28000000    13.07000000
   O     83.23000000    50.49000000    11.20000000
   H     84.26000000    52.35000000     9.34000000
   H     85.55000000    52.84000000    11.87000000
   H     86.41000000    50.51000000    11.67000000
   H     85.42000000    50.40000000    10.17000000
   N     87.16000000    52.84000000     8.94000000
   C     88.45000000    52.82000000     8.27000000
   C     89.38000000    51.69000000     8.68000000
   O     88.96000000    50.54000000     8.59000000
   H     86.33000000    52.68000000     8.39000000
   H     88.93000000    53.76000000     8.52000000
   H     88.16000000    52.70000000     7.22000000
   N     90.60000000    52.04000000     9.09000000
   C     91.63000000    51.14000000     9.59000000
   C     91.59000000    50.86000000    11.09000000
   O     92.21000000    49.95000000    11.63000000
   C     92.99000000    51.64000000     9.11000000
   C     93.20000000    53.14000000     9.29000000
   O     93.57000000    53.78000000     8.28000000
   O     93.15000000    53.60000000    10.45000000
   H     90.77000000    53.03000000     9.18000000
   H     91.45000000    50.16000000     9.17000000
   H     93.08000000    51.31000000     8.07000000
   H     93.76000000    51.12000000     9.67000000
   N     90.74000000    51.62000000    11.77000000
   C     90.70000000    51.65000000    13.22000000
   C     91.99000000    52.14000000    13.87000000
   O     92.07000000    52.05000000    15.10000000
   H     90.19000000    52.31000000    11.28000000
   H     90.45000000    50.71000000    13.72000000
   H     89.92000000    52.36000000    13.48000000
   N     92.96000000    52.64000000    13.11000000
   C     94.19000000    53.26000000    13.56000000
   C     94.00000000    54.12000000    14.81000000
   O     94.59000000    53.74000000    15.82000000
   C     95.25000000    52.17000000    13.65000000
   C     96.70000000    52.64000000    13.76000000
   C     97.72000000    51.57000000    14.10000000
   N     98.95000000    51.76000000    13.61000000
   O     97.55000000    50.67000000    14.92000000
   H     92.73000000    52.93000000    12.17000000
   H     94.52000000    53.93000000    12.77000000
   H     95.24000000    51.63000000    12.70000000
   H     95.05000000    51.44000000    14.43000000
   H     96.69000000    53.36000000    14.58000000
   H     96.90000000    53.25000000    12.88000000
   H     99.00000000    52.42000000    12.85000000
   H     99.56000000    50.96000000    13.57000000
   N     93.18000000    55.17000000    14.75000000
   C     92.90000000    56.04000000    15.88000000
   C     93.37000000    57.46000000    15.59000000
   O     93.47000000    57.90000000    14.45000000
   C     91.45000000    55.99000000    16.34000000
   C     90.48000000    56.23000000    15.18000000
   C     91.19000000    54.81000000    17.27000000
   H     92.77000000    55.47000000    13.88000000
   H     93.57000000    55.78000000    16.70000000
   H     91.33000000    56.87000000    16.96000000
   H     89.52000000    56.40000000    15.65000000
   H     90.75000000    57.12000000    14.61000000
   H     90.50000000    55.31000000    14.59000000
   H     90.23000000    55.00000000    17.77000000
   H     91.21000000    53.85000000    16.77000000
   H     91.94000000    54.85000000    18.06000000
   N     93.60000000    58.23000000    16.66000000
   C     94.18000000    59.55000000    16.58000000
   C     93.34000000    60.36000000    17.56000000
   O     92.93000000    59.82000000    18.58000000
   C     95.65000000    59.55000000    17.01000000
   C     96.23000000    60.95000000    17.02000000
   N     96.93000000    61.27000000    15.93000000
   O     96.06000000    61.63000000    18.03000000
   H     93.41000000    57.83000000    17.56000000
   H     94.01000000    59.99000000    15.60000000
   H     96.33000000    58.95000000    16.40000000
   H     95.69000000    59.05000000    17.98000000
   H     96.74000000    60.72000000    15.10000000
   H     97.37000000    62.17000000    15.83000000
   N     93.10000000    61.65000000    17.34000000
   C     92.39000000    62.60000000    18.19000000
   C     91.93000000    63.85000000    17.46000000
   O     92.17000000    64.94000000    17.97000000
   C     93.10000000    62.86000000    19.51000000
   C     92.18000000    62.91000000    20.71000000
   C     92.30000000    61.97000000    21.75000000
   C     91.21000000    63.91000000    20.77000000
   C     91.34000000    61.91000000    22.76000000
   C     90.30000000    63.93000000    21.84000000
   C     90.36000000    62.92000000    22.81000000
   O     89.40000000    62.80000000    23.78000000
   H     93.45000000    62.15000000    16.54000000
   H     91.53000000    62.00000000    18.49000000
   H     93.59000000    63.83000000    19.49000000
   H     93.90000000    62.12000000    19.61000000
   H     93.06000000    61.20000000    21.70000000
   H     91.19000000    64.65000000    19.99000000
   H     91.37000000    61.13000000    23.51000000
   H     89.62000000    64.76000000    21.97000000
   H     88.83000000    63.57000000    23.74000000
   N     91.52000000    63.78000000    16.19000000
   C     91.60000000    64.95000000    15.34000000
   C     90.65000000    66.08000000    15.71000000
   O     91.17000000    67.16000000    15.99000000
   C     91.57000000    64.51000000    13.88000000
   C     92.92000000    63.95000000    13.44000000
   C     93.09000000    62.47000000    13.75000000
   O     92.46000000    61.64000000    13.06000000
   O     93.89000000    62.16000000    14.66000000
   H     91.36000000    62.86000000    15.79000000
   H     92.61000000    65.30000000    15.56000000
   H     91.33000000    65.39000000    13.29000000
   H     90.72000000    63.90000000    13.59000000
   H     93.67000000    64.68000000    13.75000000
   H     92.95000000    63.94000000    12.35000000
   N     89.34000000    65.85000000    15.84000000
   C     88.56000000    64.66000000    15.57000000
   C     88.37000000    63.88000000    16.87000000
   O     88.58000000    64.39000000    17.96000000
   C     87.20000000    65.04000000    14.99000000
   C     87.24000000    65.92000000    13.74000000
   C     87.97000000    65.37000000    12.52000000
   O     88.86000000    66.04000000    11.95000000
   O     87.76000000    64.20000000    12.12000000
   H     88.88000000    66.63000000    16.30000000
   H     89.10000000    64.03000000    14.87000000
   H     86.47000000    65.42000000    15.70000000
   H     86.68000000    64.13000000    14.70000000
   H     87.72000000    66.86000000    14.00000000
   H     86.28000000    66.26000000    13.36000000
   N     87.89000000    62.63000000    16.77000000
   C     87.64000000    61.77000000    17.91000000
   H     86.61000000    61.41500000    17.87800000
   H     88.31800000    60.91700000    17.87800000
   H     87.80200000    62.33000000    18.83100000
   H     87.89000000    62.13000000    15.90000000
  Ca     87.98000000    63.03000000     9.73000000
   O     87.59000000    62.90000000     7.13000000
   H     87.66000000    62.26000000     6.42000000
   H     86.93000000    63.52000000     6.83000000
   O     90.45000000    63.47000000    11.01000000
   H     90.18000000    64.10000000    11.68000000
   H     90.71000000    62.69000000    11.50000000
   O     90.10000000    61.45000000     9.00000000
   H     90.26000000    60.59000000     9.39000000
   H     90.72000000    61.50000000     8.27000000
   O     89.47000000    64.73000000     8.42000000
   H     89.11000000    64.88000000     7.54000000
   H     90.41000000    64.88000000     8.31000000

Ca 1.00



