%chk=loop3.apoCaM-CA-Ng.Init31.run72.water6.chk
%nprocshared=20
%mem=10GB
%nosave
#b3lyp/svp scf=(tight,noincore,xqc) Test 
#IOP(5/87=12) Density=Current Pop=(MK,readradii) iop(6/33=2) iop(6/42=6)

loop3.apoCaM-CA-Ng.Init31.run72.water6 

   0  1 
   C    105.74000000    60.23000000    32.54000000
   C    105.18000000    60.39000000    31.13000000
   O    104.60000000    59.47000000    30.56000000
   H    106.62500000    60.85700000    32.65200000
   H    104.98700000    60.53200000    33.26700000
   H    106.01000000    59.18800000    32.70800000
   N    105.41000000    61.55000000    30.51000000
   C    105.00000000    61.82000000    29.15000000
   C    106.17000000    61.62000000    28.20000000
   O    107.31000000    61.91000000    28.52000000
   C    104.32000000    63.17000000    28.87000000
   C    105.13000000    64.33000000    29.41000000
   O    106.09000000    64.76000000    28.73000000
   O    104.86000000    64.79000000    30.55000000
   H    105.95000000    62.27000000    30.96000000
   H    104.31000000    61.04000000    28.84000000
   H    103.39000000    63.15000000    29.44000000
   H    104.21000000    63.23000000    27.79000000
   N    105.83000000    61.23000000    26.96000000
   C    106.71000000    60.88000000    25.86000000
   C    107.16000000    59.43000000    25.77000000
   O    108.16000000    59.14000000    25.12000000
   C    106.04000000    61.36000000    24.57000000
   C    107.02000000    61.27000000    23.41000000
   C    106.41000000    61.96000000    22.19000000
   C    107.39000000    62.24000000    21.06000000
   N    106.63000000    62.74000000    19.90000000
   H    104.86000000    61.37000000    26.72000000
   H    107.55000000    61.56000000    25.98000000
   H    105.64000000    62.37000000    24.66000000
   H    105.17000000    60.73000000    24.37000000
   H    107.16000000    60.20000000    23.21000000
   H    107.95000000    61.79000000    23.62000000
   H    106.01000000    62.92000000    22.53000000
   H    105.70000000    61.20000000    21.86000000
   H    107.91000000    61.31000000    20.85000000
   H    108.02000000    63.03000000    21.47000000
   H    106.21000000    63.64000000    20.10000000
   H    107.22000000    62.72000000    19.08000000
   H    105.85000000    62.16000000    19.64000000
   N    106.53000000    58.59000000    26.58000000
   C    106.98000000    57.25000000    26.91000000
   C    106.84000000    56.41000000    25.65000000
   O    105.72000000    56.38000000    25.12000000
   C    106.10000000    56.74000000    28.05000000
   C    104.61000000    57.04000000    28.02000000
   O    103.93000000    56.20000000    28.65000000
   O    104.08000000    57.95000000    27.35000000
   H    105.81000000    59.04000000    27.12000000
   H    107.99000000    57.28000000    27.31000000
   H    106.49000000    57.08000000    29.00000000
   H    106.24000000    55.66000000    28.07000000
   N    107.77000000    55.53000000    25.27000000
   C    107.73000000    54.78000000    24.03000000
   C    108.03000000    55.61000000    22.79000000
   O    108.08000000    56.84000000    22.89000000
   H    108.61000000    55.52000000    25.82000000
   H    106.77000000    54.30000000    23.85000000
   H    108.50000000    54.00000000    24.06000000
   N    108.38000000    55.03000000    21.64000000
   C    108.25000000    53.62000000    21.33000000
   C    106.81000000    53.14000000    21.23000000
   O    105.94000000    53.92000000    20.84000000
   C    109.01000000    53.17000000    20.09000000
   C    110.51000000    53.33000000    20.27000000
   N    111.22000000    52.64000000    19.38000000
   O    111.04000000    54.19000000    20.98000000
   H    108.90000000    55.60000000    21.00000000
   H    108.69000000    53.08000000    22.17000000
   H    108.69000000    53.82000000    19.28000000
   H    108.84000000    52.11000000    19.90000000
   H    110.75000000    51.97000000    18.79000000
   H    112.23000000    52.64000000    19.37000000
   N    106.48000000    51.89000000    21.56000000
   C    107.35000000    50.81000000    21.98000000
   C    107.65000000    50.97000000    23.46000000
   O    107.17000000    51.87000000    24.14000000
   H    105.50000000    51.65000000    21.65000000
   H    108.30000000    50.80000000    21.45000000
   H    106.93000000    49.82000000    21.81000000
   N    108.50000000    50.09000000    24.00000000
   C    108.80000000    49.90000000    25.41000000
   C    110.27000000    49.57000000    25.66000000
   O    110.61000000    48.67000000    26.42000000
   C    107.88000000    48.85000000    26.03000000
   C    106.38000000    49.09000000    26.01000000
   C    105.74000000    49.61000000    27.13000000
   C    105.62000000    48.77000000    24.88000000
   C    104.35000000    49.78000000    27.18000000
   C    104.22000000    48.85000000    24.91000000
   C    103.60000000    49.35000000    26.07000000
   O    102.24000000    49.34000000    26.17000000
   H    108.73000000    49.35000000    23.36000000
   H    108.61000000    50.82000000    25.95000000
   H    108.15000000    48.73000000    27.08000000
   H    108.01000000    47.91000000    25.50000000
   H    106.36000000    49.85000000    27.98000000
   H    106.11000000    48.28000000    24.05000000
   H    103.81000000    50.17000000    28.03000000
   H    103.65000000    48.48000000    24.07000000
   H    101.90000000    49.09000000    25.31000000
   N    111.22000000    50.15000000    24.92000000
   C    112.59000000    49.71000000    24.75000000
   C    113.69000000    50.62000000    25.27000000
   O    114.87000000    50.29000000    25.22000000
   C    112.80000000    49.37000000    23.28000000
   C    112.12000000    48.09000000    22.83000000
   C    112.46000000    50.52000000    22.33000000
   C    112.75000000    46.85000000    23.45000000
   H    110.87000000    51.00000000    24.50000000
   H    112.72000000    48.76000000    25.28000000
   H    113.87000000    49.23000000    23.09000000
   H    112.05000000    47.97000000    21.75000000
   H    111.06000000    48.06000000    23.11000000
   H    112.91000000    51.47000000    22.61000000
   H    112.77000000    50.25000000    21.32000000
   H    111.37000000    50.62000000    22.31000000
   H    111.91000000    46.30000000    23.88000000
   H    113.33000000    46.33000000    22.68000000
   H    113.44000000    47.20000000    24.21000000
   N    113.35000000    51.78000000    25.82000000
   C    114.37000000    52.68000000    26.32000000
   C    114.04000000    54.16000000    26.36000000
   O    114.94000000    54.92000000    26.70000000
   C    114.81000000    52.31000000    27.74000000
   O    113.86000000    52.64000000    28.73000000
   H    112.36000000    51.99000000    25.89000000
   H    115.22000000    52.73000000    25.64000000
   H    115.74000000    52.72000000    28.11000000
   H    115.02000000    51.24000000    27.85000000
   H    112.95000000    52.46000000    28.46000000
   N    112.81000000    54.57000000    26.04000000
   C    112.35000000    55.93000000    26.18000000
   C    112.00000000    56.45000000    27.57000000
   O    110.95000000    57.05000000    27.78000000
   C    111.30000000    56.19000000    25.10000000
   H    112.05000000    53.91000000    25.95000000
   H    113.20000000    56.54000000    25.88000000
   H    110.38000000    55.67000000    25.36000000
   H    111.07000000    57.25000000    24.99000000
   H    111.73000000    55.82000000    24.18000000
   N    112.84000000    56.12000000    28.56000000
   C    112.53000000    56.59000000    29.90000000
   C    111.30000000    55.97000000    30.54000000
   O    110.78000000    56.49000000    31.52000000
   C    112.74000000    58.10000000    30.02000000
   H    113.78000000    55.81000000    28.39000000
   H    113.29000000    56.11000000    30.51000000
   H    112.01000000    58.67000000    29.45000000
   H    112.70000000    58.37000000    31.07000000
   H    113.69000000    58.29000000    29.51000000
   N    110.74000000    54.91000000    29.95000000
   C    109.44000000    54.33000000    30.24000000
   C    109.66000000    53.05000000    31.03000000
   O    108.71000000    52.59000000    31.66000000
   C    108.75000000    54.04000000    28.91000000
   C    109.00000000    52.77000000    28.10000000
   C    110.35000000    52.77000000    27.42000000
   O    111.36000000    52.71000000    28.16000000
   O    110.44000000    52.75000000    26.17000000
   H    111.20000000    54.56000000    29.12000000
   H    108.78000000    55.00000000    30.79000000
   H    108.97000000    54.90000000    28.27000000
   H    107.71000000    53.96000000    29.24000000
   H    108.28000000    52.74000000    27.29000000
   H    108.83000000    51.92000000    28.76000000
   N    110.87000000    52.49000000    31.12000000
   C    111.15000000    51.44000000    32.08000000
   H    111.99600000    51.73300000    32.70200000
   H    110.27500000    51.28000000    32.71000000
   H    111.39100000    50.51800000    31.55100000
   H    111.59000000    52.88000000    30.53000000
  Ca    101.51500000    57.03000000    28.21000000
   O    102.43500000    59.70000000    27.99000000
   H    102.43500000    60.45000000    27.40000000
   H    103.08500000    59.10000000    27.63000000
   O    102.37500000    55.41000000    26.24000000
   H    102.89500000    55.60000000    25.46000000
   H    102.13500000    54.49000000    26.16000000
   O     99.59000000    54.99000000    27.68000000
   H     99.71000000    54.07000000    27.92000000
   H     98.78000000    55.01000000    27.18000000
   O    102.37500000    58.13000000    30.81000000
   H    103.17500000    58.66000000    30.86000000
   H    101.92500000    58.29000000    31.64000000
   O    101.17500000    58.19000000    25.68000000
   H    101.98500000    58.24000000    25.17000000
   H    100.50500000    58.52000000    25.09000000
   O    101.93500000    54.86000000    30.27000000
   H    102.60500000    54.25000000    29.94000000
   H    101.64500000    54.46000000    31.09000000

Ca 1.00



