%chk=loop3.holoCaM-CaMKII.run78.water2.chk
%nprocshared=20
%mem=10GB
%nosave
#b3lyp/svp scf=(tight,noincore,xqc) Test 
#IOP(5/87=12) Density=Current Pop=(MK,readradii) iop(6/33=2) iop(6/42=6)

loop3.holoCaM-CaMKII.run78.water2 

   0  1 
   C     37.28000000    36.28000000    96.14800000
   C     37.95000000    34.92000000    96.02800000
   O     38.99000000    34.81000000    95.37800000
   H     36.31500000    36.16700000    96.64300000
   H     37.91200000    36.94700000    96.73400000
   H     37.13100000    36.70100000    95.15400000
   N     37.41000000    33.88000000    96.66800000
   C     37.84000000    32.50000000    96.54800000
   C     37.21000000    31.94000000    95.27800000
   O     35.98000000    31.89000000    95.21800000
   C     37.52000000    31.69000000    97.79800000
   C     37.95000000    30.23000000    97.82800000
   O     37.65000000    29.59000000    98.85800000
   O     38.56000000    29.76000000    96.83800000
   H     36.74000000    34.14000000    97.37800000
   H     38.92000000    32.52000000    96.37800000
   H     36.44000000    31.71000000    97.88800000
   H     37.99000000    32.14000000    98.67800000
   N     38.03000000    31.54000000    94.30800000
   C     37.73000000    31.35000000    92.90800000
   C     37.20000000    29.96000000    92.59800000
   O     36.45000000    29.69000000    91.65800000
   C     38.97000000    31.71000000    92.08800000
   C     38.64000000    31.69000000    90.59800000
   C     39.67000000    32.31000000    89.65800000
   C     39.41000000    31.88000000    88.22800000
   N     40.35000000    32.63000000    87.37800000
   H     39.01000000    31.64000000    94.54800000
   H     36.96000000    32.07000000    92.62800000
   H     39.71000000    30.94000000    92.28800000
   H     39.31000000    32.69000000    92.43800000
   H     37.69000000    32.19000000    90.39800000
   H     38.53000000    30.65000000    90.30800000
   H     40.64000000    31.91000000    89.96800000
   H     39.66000000    33.39000000    89.81800000
   H     38.39000000    32.23000000    88.07800000
   H     39.49000000    30.79000000    88.16800000
   H     41.27000000    32.22000000    87.49800000
   H     40.08000000    32.53000000    86.40800000
   H     40.37000000    33.63000000    87.51800000
   N     37.26000000    29.11000000    93.61800000
   C     37.03000000    27.68000000    93.58800000
   C     36.29000000    27.14000000    94.80800000
   O     35.48000000    26.22000000    94.70800000
   C     38.36000000    26.93000000    93.52800000
   C     39.44000000    27.48000000    94.44800000
   O     40.10000000    28.47000000    94.05800000
   O     39.50000000    27.06000000    95.61800000
   H     37.88000000    29.45000000    94.33800000
   H     36.42000000    27.42000000    92.71800000
   H     38.76000000    27.11000000    92.52800000
   H     38.12000000    25.88000000    93.69800000
   N     36.53000000    27.82000000    95.92800000
   C     35.71000000    27.64000000    97.10800000
   C     36.28000000    26.62000000    98.08800000
   O     35.57000000    26.07000000    98.92800000
   H     37.31000000    28.46000000    95.89800000
   H     34.66000000    27.48000000    96.88800000
   H     35.62000000    28.55000000    97.70800000
   N     37.60000000    26.42000000    98.06800000
   C     38.39000000    25.62000000    98.97800000
   C     38.69000000    26.29000000   100.31800000
   O     39.26000000    25.60000000   101.14800000
   C     39.64000000    24.99000000    98.37800000
   C     40.84000000    25.92000000    98.46800000
   N     42.07000000    25.39000000    98.36800000
   O     40.74000000    27.14000000    98.40800000
   H     38.14000000    27.02000000    97.46800000
   H     37.84000000    24.78000000    99.38800000
   H     39.55000000    24.62000000    97.35800000
   H     39.76000000    24.07000000    98.94800000
   H     42.32000000    24.41000000    98.36800000
   H     42.79000000    26.05000000    98.59800000
   N     38.33000000    27.55000000   100.55800000
   C     38.35000000    28.19000000   101.86800000
   C     39.55000000    29.11000000   101.98800000
   O     39.82000000    29.49000000   103.12800000
   H     37.95000000    28.08000000    99.78800000
   H     38.41000000    27.36000000   102.56800000
   H     37.40000000    28.71000000   102.01800000
   N     40.31000000    29.43000000   100.93800000
   C     41.51000000    30.23000000   100.97800000
   C     41.60000000    31.08000000    99.71800000
   O     41.15000000    30.68000000    98.64800000
   C     42.71000000    29.29000000   101.05800000
   C     42.80000000    28.36000000   102.23800000
   C     43.28000000    28.80000000   103.47800000
   C     42.58000000    27.00000000   101.99800000
   C     43.52000000    27.88000000   104.50800000
   C     42.77000000    26.06000000   103.01800000
   C     43.28000000    26.51000000   104.25800000
   O     43.28000000    25.62000000   105.27800000
   H     40.07000000    28.99000000   100.05800000
   H     41.57000000    30.89000000   101.84800000
   H     43.56000000    29.97000000   101.14800000
   H     42.75000000    28.68000000   100.14800000
   H     43.52000000    29.84000000   103.62800000
   H     42.19000000    26.64000000   101.05800000
   H     43.84000000    28.19000000   105.48800000
   H     42.62000000    25.02000000   102.79800000
   H     43.44000000    26.03000000   106.13800000
   N     42.25000000    32.24000000    99.85800000
   C     42.54000000    33.14000000    98.76800000
   C     44.03000000    33.35000000    98.54800000
   O     44.71000000    33.81000000    99.46800000
   C     41.72000000    34.43000000    98.80800000
   C     40.21000000    34.16000000    98.78800000
   C     42.11000000    35.52000000    97.81800000
   C     39.58000000    35.13000000    99.77800000
   H     42.63000000    32.51000000   100.75800000
   H     42.14000000    32.73000000    97.83800000
   H     42.05000000    34.80000000    99.78800000
   H     40.03000000    33.17000000    99.19800000
   H     39.80000000    34.13000000    97.77800000
   H     42.00000000    35.11000000    96.81800000
   H     41.40000000    36.34000000    97.92800000
   H     43.17000000    35.73000000    97.97800000
   H     39.76000000    36.17000000    99.48800000
   H     38.50000000    35.04000000    99.86800000
   H     39.91000000    34.97000000   100.80800000
   N     44.58000000    33.14000000    97.34800000
   C     45.92000000    33.59000000    97.04800000
   C     46.10000000    34.97000000    96.42800000
   O     45.07000000    35.57000000    96.11800000
   C     46.55000000    32.55000000    96.12800000
   O     45.96000000    32.62000000    94.84800000
   H     44.10000000    32.56000000    96.66800000
   H     46.54000000    33.70000000    97.93800000
   H     46.53000000    31.53000000    96.51800000
   H     47.61000000    32.75000000    96.00800000
   H     46.38000000    32.05000000    94.19800000
   N     47.30000000    35.48000000    96.13800000
   C     47.51000000    36.65000000    95.31800000
   C     46.87000000    36.52000000    93.94800000
   O     46.17000000    37.39000000    93.41800000
   C     49.01000000    36.95000000    95.31800000
   H     48.13000000    35.03000000    96.49800000
   H     47.15000000    37.56000000    95.79800000
   H     49.21000000    37.77000000    94.63800000
   H     49.29000000    37.31000000    96.30800000
   H     49.62000000    36.10000000    94.98800000
   N     47.00000000    35.33000000    93.37800000
   C     46.47000000    34.99000000    92.06800000
   C     44.96000000    35.11000000    92.00800000
   O     44.42000000    35.48000000    90.96800000
   C     46.96000000    33.58000000    91.73800000
   H     47.43000000    34.62000000    93.94800000
   H     46.99000000    35.62000000    91.33800000
   H     46.75000000    33.37000000    90.68800000
   H     48.02000000    33.50000000    91.98800000
   H     46.34000000    32.86000000    92.26800000
   N     44.30000000    34.70000000    93.09800000
   C     42.86000000    34.78000000    93.15800000
   C     42.44000000    36.23000000    93.33800000
   O     41.42000000    36.62000000    92.76800000
   C     42.38000000    33.80000000    94.22800000
   C     42.49000000    32.36000000    93.72800000
   C     42.00000000    31.31000000    94.70800000
   O     42.85000000    30.50000000    95.13800000
   O     40.83000000    31.31000000    95.15800000
   H     44.87000000    34.32000000    93.84800000
   H     42.46000000    34.42000000    92.21800000
   H     41.40000000    34.22000000    94.43800000
   H     42.93000000    33.92000000    95.15800000
   H     43.50000000    32.10000000    93.41800000
   H     41.89000000    32.37000000    92.80800000
   N     43.24000000    37.08000000    93.99800000
   C     43.10000000    38.52000000    93.97800000
   H     42.18200000    38.80200000    94.49400000
   H     43.95400000    38.97600000    94.48000000
   H     43.05700000    38.86700000    92.94600000
   H     43.95000000    36.70000000    94.60800000
  Ca     41.00000000    29.14000000    96.50000000
   O     43.43000000    28.37000000    97.84000000
   H     43.92000000    27.74000000    97.32000000
   H     44.03000000    29.11000000    97.96000000
   O     42.46000000    27.13000000    95.35000000
   H     43.37000000    26.98000000    95.09000000
   H     41.99000000    26.36000000    95.02000000

Ca 1.00



