%chk=loop2.apoCaM-CA-Ng.Init293.run87.water6.chk
%nprocshared=20
%mem=10GB
%nosave
#b3lyp/svp scf=(tight,noincore,xqc) Test 
#IOP(5/87=12) Density=Current Pop=(MK,readradii) iop(6/33=2) iop(6/42=6)

loop2.apoCaM-CA-Ng.Init293.run87.water6 

   -2  1 
   C     66.74000000   117.19000000    11.67000000
   C     66.27000000   118.46000000    12.34000000
   O     65.18000000   118.42000000    12.92000000
   H     67.73300000   116.93200000    12.03700000
   H     66.04700000   116.38000000    11.89900000
   H     66.78000000   117.34100000    10.59100000
   N     66.95000000   119.61000000    12.39000000
   C     66.55000000   120.80000000    13.11000000
   C     65.36000000   121.54000000    12.52000000
   O     64.54000000   122.12000000    13.24000000
   C     67.81000000   121.67000000    13.20000000
   C     67.90000000   122.58000000    14.41000000
   O     67.15000000   122.70000000    15.40000000
   O     68.98000000   123.23000000    14.45000000
   H     67.76000000   119.65000000    11.78000000
   H     66.31000000   120.45000000    14.11000000
   H     67.90000000   122.22000000    12.26000000
   H     68.61000000   120.94000000    13.30000000
   N     65.28000000   121.61000000    11.19000000
   C     64.26000000   122.32000000    10.45000000
   C     62.83000000   121.91000000    10.79000000
   O     61.90000000   122.68000000    10.60000000
   C     64.58000000   123.81000000    10.34000000
   H     65.93000000   121.05000000    10.67000000
   H     64.33000000   121.89000000     9.45000000
   H     64.10000000   124.30000000    11.18000000
   H     65.67000000   123.86000000    10.31000000
   H     64.15000000   124.24000000     9.44000000
   N     62.51000000   120.79000000    11.44000000
   C     61.20000000   120.37000000    11.92000000
   C     60.61000000   121.16000000    13.07000000
   O     59.44000000   121.02000000    13.40000000
   C     60.14000000   120.22000000    10.83000000
   C     60.65000000   119.36000000     9.68000000
   O     60.47000000   119.78000000     8.52000000
   O     61.17000000   118.25000000     9.91000000
   H     63.22000000   120.19000000    11.82000000
   H     61.26000000   119.37000000    12.34000000
   H     59.90000000   121.23000000    10.51000000
   H     59.25000000   119.71000000    11.20000000
   N     61.45000000   121.87000000    13.84000000
   C     60.91000000   122.68000000    14.92000000
   C     60.28000000   121.85000000    16.03000000
   O     60.61000000   120.68000000    16.24000000
   H     62.37000000   122.03000000    13.46000000
   H     60.11000000   123.29000000    14.50000000
   H     61.56000000   123.44000000    15.34000000
   N     59.39000000   122.48000000    16.79000000
   C     58.53000000   121.92000000    17.82000000
   C     59.20000000   120.95000000    18.79000000
   O     58.73000000   119.86000000    19.10000000
   C     57.45000000   121.16000000    17.07000000
   C     56.55000000   122.04000000    16.22000000
   N     56.14000000   121.70000000    14.99000000
   O     56.21000000   123.16000000    16.58000000
   H     59.08000000   123.39000000    16.48000000
   H     58.07000000   122.71000000    18.42000000
   H     56.76000000   120.82000000    17.84000000
   H     57.88000000   120.33000000    16.50000000
   H     56.28000000   120.79000000    14.58000000
   H     55.76000000   122.45000000    14.44000000
   N     60.36000000   121.37000000    19.31000000
   C     61.19000000   120.63000000    20.23000000
   C     62.09000000   119.54000000    19.68000000
   O     62.91000000   118.98000000    20.41000000
   H     60.71000000   122.24000000    18.93000000
   H     60.55000000   120.05000000    20.89000000
   H     61.84000000   121.30000000    20.80000000
   N     62.17000000   119.39000000    18.35000000
   C     63.07000000   118.45000000    17.71000000
   C     62.44000000   117.07000000    17.63000000
   O     61.22000000   116.92000000    17.56000000
   C     63.43000000   118.96000000    16.32000000
   C     64.30000000   120.22000000    16.43000000
   O     64.19000000   118.05000000    15.56000000
   H     61.64000000   119.99000000    17.74000000
   H     63.99000000   118.39000000    18.30000000
   H     62.58000000   119.11000000    15.66000000
   H     64.43000000   118.40000000    14.70000000
   H     63.72000000   120.91000000    17.03000000
   H     65.25000000   120.06000000    16.95000000
   H     64.42000000   120.71000000    15.46000000
   N     63.34000000   116.09000000    17.52000000
   C     63.02000000   114.71000000    17.18000000
   C     62.29000000   114.58000000    15.86000000
   O     62.77000000   115.15000000    14.88000000
   C     64.26000000   113.83000000    17.15000000
   C     65.49000000   114.34000000    16.39000000
   C     64.60000000   113.24000000    18.51000000
   C     66.73000000   113.45000000    16.38000000
   H     64.32000000   116.30000000    17.36000000
   H     62.37000000   114.35000000    17.98000000
   H     63.91000000   113.00000000    16.54000000
   H     65.76000000   115.29000000    16.86000000
   H     65.18000000   114.47000000    15.36000000
   H     63.73000000   113.10000000    19.15000000
   H     65.11000000   112.28000000    18.40000000
   H     65.16000000   114.00000000    19.05000000
   H     67.15000000   113.18000000    17.35000000
   H     66.54000000   112.49000000    15.90000000
   H     67.58000000   113.80000000    15.81000000
   N     61.22000000   113.79000000    15.74000000
   C     60.30000000   113.85000000    14.62000000
   C     58.86000000   114.28000000    14.88000000
   O     58.03000000   114.28000000    13.98000000
   C     60.27000000   112.57000000    13.79000000
   C     59.85000000   112.78000000    12.34000000
   O     60.41000000   113.65000000    11.65000000
   O     59.15000000   111.95000000    11.72000000
   H     60.92000000   113.20000000    16.50000000
   H     60.75000000   114.57000000    13.93000000
   H     59.61000000   111.82000000    14.24000000
   H     61.20000000   112.01000000    13.79000000
   N     58.55000000   114.50000000    16.16000000
   C     57.29000000   115.04000000    16.63000000
   C     56.63000000   114.53000000    17.90000000
   O     55.41000000   114.38000000    17.89000000
   C     57.61000000   116.53000000    16.78000000
   C     56.51000000   117.42000000    17.31000000
   C     56.49000000   117.82000000    18.65000000
   C     55.65000000   118.04000000    16.39000000
   C     55.50000000   118.74000000    19.02000000
   C     54.63000000   118.91000000    16.80000000
   C     54.45000000   119.12000000    18.17000000
   H     59.27000000   114.25000000    16.83000000
   H     56.56000000   114.96000000    15.83000000
   H     58.14000000   117.06000000    15.99000000
   H     58.30000000   116.47000000    17.62000000
   H     57.22000000   117.44000000    19.34000000
   H     55.79000000   117.92000000    15.33000000
   H     55.57000000   119.04000000    20.06000000
   H     54.01000000   119.42000000    16.07000000
   H     53.65000000   119.77000000    18.49000000
   N     57.36000000   114.22000000    18.97000000
   C     58.76000000   113.88000000    19.11000000
   C     59.10000000   112.49000000    18.57000000
   O     60.21000000   112.30000000    18.08000000
   C     59.02000000   113.87000000    20.62000000
   C     57.65000000   113.61000000    21.25000000
   C     56.64000000   114.09000000    20.22000000
   H     59.40000000   114.61000000    18.62000000
   H     59.64000000   113.08000000    21.02000000
   H     59.40000000   114.79000000    21.06000000
   H     57.47000000   112.60000000    21.60000000
   H     57.56000000   114.28000000    22.11000000
   H     55.93000000   113.27000000    20.09000000
   H     56.21000000   115.05000000    20.48000000
   N     58.14000000   111.56000000    18.57000000
   C     58.26000000   110.26000000    17.94000000
   C     59.50000000   109.46000000    18.31000000
   O     60.23000000   108.97000000    17.44000000
   C     58.01000000   110.30000000    16.44000000
   C     56.76000000   110.98000000    15.89000000
   C     55.57000000   110.05000000    16.14000000
   O     55.01000000   109.95000000    17.25000000
   O     55.15000000   109.48000000    15.11000000
   H     57.27000000   111.64000000    19.06000000
   H     57.48000000   109.56000000    18.24000000
   H     58.05000000   109.27000000    16.08000000
   H     58.87000000   110.84000000    16.04000000
   H     56.87000000   111.12000000    14.82000000
   H     56.60000000   111.95000000    16.37000000
   N     59.79000000   109.34000000    19.60000000
   C     60.91000000   108.59000000    20.11000000
   H     61.73400000   109.27000000    20.32500000
   H     60.61700000   108.07400000    21.02400000
   H     61.22800000   107.85900000    19.36600000
   H     59.13000000   109.73000000    20.27000000
  Ca     61.60000000   115.81500000    10.63000000
   O     60.16000000   117.13500000    12.53000000
   H     60.24000000   117.18500000    13.48000000
   H     59.28000000   117.45500000    12.34000000
   O     61.36000000   114.65500000     8.30000000
   H     62.08000000   114.50500000     7.69000000
   H     60.68000000   114.04500000     8.03000000
   O     63.63000000   116.82500000     9.31000000
   H     63.40000000   117.46500000     8.63000000
   H     64.53000000   116.57500000     9.10000000
   O     58.87000000   115.78500000    10.33000000
   H     58.03000000   116.15500000    10.07000000
   H     58.70000000   114.84500000    10.43000000
   O     63.36000000   113.84500000    10.92000000
   H     63.59000000   113.33500000    11.70000000
   H     64.14000000   113.79500000    10.36000000
   O     63.38000000   116.32500000    12.52000000
   H     63.30000000   116.03500000    13.43000000
   H     64.04000000   117.01500000    12.54000000

Ca 1.00



