%chk=loop3.holoCaM.run9.water3.chk
%nprocshared=20
%mem=10GB
%nosave
#b3lyp/svp scf=(tight,noincore,xqc) Test 
#IOP(5/87=12) Density=Current Pop=(MK,readradii) iop(6/33=2) iop(6/42=6)

loop3.holoCaM.run9.water3 

   0  1 
   C     34.84000000    48.67000000    27.30000000
   C     35.33000000    48.24000000    28.68000000
   O     34.95000000    48.87000000    29.67000000
   H     33.96700000    49.31400000    27.40900000
   H     35.63200000    49.21600000    26.78700000
   H     34.57000000    47.78800000    26.71900000
   N     36.14000000    47.18000000    28.63000000
   C     36.85000000    46.72000000    29.81000000
   C     38.16000000    47.47000000    29.99000000
   O     39.21000000    47.22000000    29.41000000
   C     37.06000000    45.21000000    29.65000000
   C     37.99000000    44.56000000    30.66000000
   O     37.83000000    44.80000000    31.88000000
   O     38.80000000    43.67000000    30.32000000
   H     36.51000000    46.80000000    27.77000000
   H     36.27000000    46.82000000    30.73000000
   H     37.52000000    45.10000000    28.67000000
   H     36.14000000    44.62000000    29.66000000
   N     38.04000000    48.46000000    30.89000000
   C     39.00000000    49.50000000    31.16000000
   C     40.26000000    49.05000000    31.90000000
   O     41.32000000    49.64000000    31.73000000
   C     38.28000000    50.66000000    31.85000000
   C     39.00000000    52.00000000    31.68000000
   C     38.39000000    53.15000000    32.47000000
   C     38.81000000    54.55000000    32.02000000
   N     40.26000000    54.81000000    32.09000000
   H     37.10000000    48.61000000    31.22000000
   H     39.37000000    49.88000000    30.21000000
   H     38.15000000    50.53000000    32.92000000
   H     37.30000000    50.75000000    31.38000000
   H     38.97000000    52.26000000    30.63000000
   H     40.05000000    51.85000000    31.93000000
   H     38.59000000    53.01000000    33.54000000
   H     37.31000000    53.04000000    32.35000000
   H     38.39000000    55.20000000    32.79000000
   H     38.52000000    54.92000000    31.04000000
   H     40.71000000    54.45000000    31.27000000
   H     40.39000000    55.80000000    31.95000000
   H     40.82000000    54.63000000    32.91000000
   N     40.29000000    47.89000000    32.56000000
   C     41.47000000    47.39000000    33.23000000
   C     42.12000000    46.17000000    32.58000000
   O     43.24000000    45.87000000    32.99000000
   C     41.39000000    47.22000000    34.74000000
   C     40.34000000    46.21000000    35.17000000
   O     39.21000000    46.31000000    34.64000000
   O     40.59000000    45.45000000    36.13000000
   H     39.39000000    47.46000000    32.72000000
   H     42.21000000    48.19000000    33.26000000
   H     41.10000000    48.21000000    35.09000000
   H     42.34000000    47.04000000    35.25000000
   N     41.44000000    45.60000000    31.58000000
   C     41.94000000    44.49000000    30.80000000
   C     41.81000000    43.08000000    31.38000000
   O     42.36000000    42.20000000    30.72000000
   H     40.63000000    46.06000000    31.18000000
   H     43.01000000    44.61000000    30.63000000
   H     41.34000000    44.43000000    29.90000000
   N     41.03000000    42.94000000    32.45000000
   C     40.85000000    41.73000000    33.23000000
   C     40.00000000    40.65000000    32.58000000
   O     40.07000000    39.52000000    33.06000000
   C     40.37000000    42.01000000    34.66000000
   C     38.85000000    42.04000000    34.69000000
   N     38.24000000    41.08000000    35.38000000
   O     38.22000000    42.86000000    34.02000000
   H     40.53000000    43.73000000    32.81000000
   H     41.81000000    41.23000000    33.34000000
   H     40.78000000    42.95000000    35.03000000
   H     40.76000000    41.27000000    35.35000000
   H     38.72000000    40.39000000    35.94000000
   H     37.23000000    41.19000000    35.47000000
   N     39.32000000    40.93000000    31.47000000
   C     38.47000000    40.02000000    30.74000000
   C     36.96000000    40.13000000    30.93000000
   O     36.27000000    39.29000000    30.36000000
   H     39.48000000    41.89000000    31.20000000
   H     38.78000000    39.01000000    31.00000000
   H     38.65000000    40.07000000    29.66000000
   N     36.50000000    41.05000000    31.78000000
   C     35.09000000    41.33000000    31.95000000
   C     34.64000000    42.78000000    31.93000000
   O     35.24000000    43.63000000    32.59000000
   C     34.65000000    40.69000000    33.26000000
   C     35.05000000    39.26000000    33.54000000
   C     35.82000000    38.87000000    34.64000000
   C     34.56000000    38.29000000    32.66000000
   C     36.18000000    37.54000000    34.85000000
   C     34.91000000    36.95000000    32.84000000
   C     35.74000000    36.58000000    33.92000000
   O     36.26000000    35.35000000    34.19000000
   H     37.16000000    41.71000000    32.18000000
   H     34.53000000    40.82000000    31.17000000
   H     33.57000000    40.79000000    33.33000000
   H     35.12000000    41.29000000    34.04000000
   H     36.09000000    39.60000000    35.39000000
   H     34.00000000    38.61000000    31.79000000
   H     36.75000000    37.23000000    35.72000000
   H     34.57000000    36.20000000    32.13000000
   H     36.25000000    34.85000000    33.37000000
   N     33.56000000    43.06000000    31.21000000
   C     32.88000000    44.34000000    31.27000000
   C     31.76000000    44.35000000    32.30000000
   O     30.73000000    43.68000000    32.21000000
   C     32.18000000    44.70000000    29.96000000
   C     33.15000000    44.64000000    28.78000000
   C     31.50000000    46.06000000    29.93000000
   C     32.60000000    44.75000000    27.36000000
   H     33.07000000    42.36000000    30.67000000
   H     33.59000000    45.15000000    31.41000000
   H     31.42000000    43.95000000    29.70000000
   H     33.56000000    43.64000000    28.72000000
   H     33.99000000    45.31000000    28.96000000
   H     32.07000000    46.76000000    30.54000000
   H     31.57000000    46.52000000    28.94000000
   H     30.54000000    46.06000000    30.45000000
   H     31.81000000    44.01000000    27.36000000
   H     32.28000000    45.75000000    27.07000000
   H     33.41000000    44.48000000    26.68000000
   N     31.95000000    45.09000000    33.39000000
   C     30.94000000    45.40000000    34.39000000
   C     29.96000000    46.47000000    33.93000000
   O     30.17000000    47.18000000    32.96000000
   C     31.60000000    45.73000000    35.72000000
   O     32.45000000    46.85000000    35.67000000
   H     32.75000000    45.70000000    33.50000000
   H     30.44000000    44.45000000    34.58000000
   H     32.14000000    44.85000000    36.07000000
   H     30.76000000    45.98000000    36.38000000
   H     33.18000000    46.55000000    35.14000000
   N     28.81000000    46.65000000    34.58000000
   C     27.78000000    47.61000000    34.23000000
   C     28.24000000    49.04000000    34.49000000
   O     27.79000000    49.85000000    33.69000000
   C     26.54000000    47.17000000    35.02000000
   H     28.58000000    46.02000000    35.34000000
   H     27.62000000    47.46000000    33.16000000
   H     25.69000000    47.71000000    34.59000000
   H     26.36000000    46.11000000    34.88000000
   H     26.68000000    47.52000000    36.04000000
   N     29.14000000    49.34000000    35.42000000
   C     29.75000000    50.65000000    35.55000000
   C     30.61000000    50.99000000    34.34000000
   O     30.54000000    52.11000000    33.85000000
   C     30.53000000    50.60000000    36.86000000
   H     29.46000000    48.66000000    36.10000000
   H     29.00000000    51.45000000    35.59000000
   H     30.05000000    51.29000000    37.55000000
   H     30.64000000    49.60000000    37.26000000
   H     31.52000000    50.98000000    36.60000000
   N     31.37000000    50.01000000    33.84000000
   C     32.34000000    50.17000000    32.78000000
   C     31.59000000    50.36000000    31.47000000
   O     31.82000000    51.35000000    30.77000000
   C     33.20000000    48.91000000    32.76000000
   C     34.34000000    48.80000000    33.77000000
   C     35.06000000    47.46000000    33.68000000
   O     34.44000000    46.41000000    33.93000000
   O     36.26000000    47.39000000    33.35000000
   H     31.17000000    49.09000000    34.20000000
   H     32.83000000    51.14000000    32.89000000
   H     33.71000000    48.91000000    31.79000000
   H     32.55000000    48.03000000    32.77000000
   H     33.96000000    48.97000000    34.77000000
   H     34.98000000    49.61000000    33.42000000
   N     30.55000000    49.57000000    31.20000000
   C     29.72000000    49.79000000    30.04000000
   H     28.83100000    50.35000000    30.33100000
   H     30.27800000    50.35700000    29.29500000
   H     29.42200000    48.83000000    29.61800000
   H     30.34000000    48.75000000    31.77000000
  Ca     36.88000000    45.16000000    34.25000000
   O     38.24000000    44.31000000    36.54000000
   H     39.14000000    44.60000000    36.46000000
   H     38.24000000    43.72000000    37.30000000
   O     35.43000000    43.34000000    35.76000000
   H     35.65000000    43.02000000    36.63000000
   H     34.57000000    42.95000000    35.57000000
   O     36.28000000    46.42000000    36.49000000
   H     36.71000000    45.87000000    37.15000000
   H     35.94000000    47.17000000    36.99000000

Ca 1.00



