%chk=loop3.apoCaM-CA-Ng.Init293.run68.water5.chk
%nprocshared=20
%mem=10GB
%nosave
#b3lyp/svp scf=(tight,noincore,xqc) Test 
#IOP(5/87=12) Density=Current Pop=(MK,readradii) iop(6/33=2) iop(6/42=6)

loop3.apoCaM-CA-Ng.Init293.run68.water5 

   0  1 
   C     75.58000000    49.24000000    43.35000000
   C     75.53000000    47.72000000    43.32000000
   O     76.59000000    47.11000000    43.30000000
   H     76.46500000    49.58400000    42.81500000
   H     74.68800000    49.64300000    42.87100000
   H     75.62400000    49.58200000    44.38400000
   N     74.37000000    47.10000000    43.10000000
   C     74.29000000    45.66000000    42.96000000
   C     73.12000000    45.01000000    43.69000000
   O     72.04000000    45.59000000    43.77000000
   C     74.14000000    45.42000000    41.46000000
   C     74.08000000    43.99000000    40.94000000
   O     73.81000000    43.81000000    39.74000000
   O     74.29000000    43.02000000    41.71000000
   H     73.52000000    47.64000000    43.11000000
   H     75.17000000    45.12000000    43.30000000
   H     75.00000000    45.91000000    41.01000000
   H     73.26000000    45.93000000    41.08000000
   N     73.34000000    43.84000000    44.30000000
   C     72.37000000    42.92000000    44.84000000
   C     71.28000000    42.47000000    43.88000000
   O     71.16000000    43.02000000    42.79000000
   C     71.81000000    43.50000000    46.14000000
   C     71.70000000    42.46000000    47.24000000
   C     71.00000000    42.90000000    48.53000000
   C     69.56000000    43.36000000    48.33000000
   N     68.69000000    42.21000000    48.01000000
   H     74.30000000    43.55000000    44.18000000
   H     72.88000000    41.99000000    45.11000000
   H     70.88000000    44.05000000    45.98000000
   H     72.47000000    44.27000000    46.53000000
   H     72.73000000    42.13000000    47.37000000
   H     71.13000000    41.61000000    46.87000000
   H     71.50000000    43.83000000    48.76000000
   H     71.13000000    42.19000000    49.34000000
   H     69.53000000    44.15000000    47.58000000
   H     69.16000000    43.84000000    49.22000000
   H     68.73000000    41.55000000    48.77000000
   H     67.71000000    42.42000000    47.95000000
   H     68.91000000    41.71000000    47.16000000
   N     70.59000000    41.38000000    44.24000000
   C     69.35000000    40.94000000    43.63000000
   C     68.25000000    41.90000000    44.05000000
   O     68.37000000    42.76000000    44.92000000
   C     69.11000000    39.47000000    43.95000000
   C     69.19000000    39.02000000    45.40000000
   O     69.13000000    39.87000000    46.32000000
   O     69.26000000    37.81000000    45.68000000
   H     70.84000000    41.06000000    45.17000000
   H     69.47000000    41.00000000    42.55000000
   H     69.91000000    38.89000000    43.48000000
   H     68.11000000    39.26000000    43.55000000
   N     67.12000000    41.80000000    43.35000000
   C     65.86000000    42.49000000    43.50000000
   C     64.87000000    42.32000000    42.36000000
   O     65.18000000    42.48000000    41.18000000
   H     67.03000000    41.07000000    42.65000000
   H     66.00000000    43.57000000    43.60000000
   H     65.50000000    42.03000000    44.42000000
   N     63.65000000    41.85000000    42.63000000
   C     62.51000000    41.68000000    41.75000000
   C     61.21000000    42.08000000    42.43000000
   O     61.08000000    41.99000000    43.65000000
   C     62.52000000    40.25000000    41.22000000
   C     62.67000000    39.10000000    42.22000000
   N     63.56000000    38.19000000    41.83000000
   O     62.13000000    39.00000000    43.32000000
   H     63.40000000    41.76000000    43.61000000
   H     62.79000000    42.30000000    40.91000000
   H     63.39000000    40.14000000    40.57000000
   H     61.69000000    40.09000000    40.54000000
   H     63.92000000    38.16000000    40.88000000
   H     63.59000000    37.32000000    42.33000000
   N     60.23000000    42.62000000    41.70000000
   C     59.09000000    43.31000000    42.25000000
   C     59.52000000    44.57000000    42.99000000
   O     60.72000000    44.77000000    43.18000000
   H     60.13000000    42.37000000    40.72000000
   H     58.66000000    42.68000000    43.03000000
   H     58.39000000    43.56000000    41.45000000
   N     58.49000000    45.32000000    43.40000000
   C     58.45000000    46.61000000    44.05000000
   C     59.30000000    46.82000000    45.30000000
   O     59.12000000    47.82000000    46.00000000
   C     58.71000000    47.69000000    43.00000000
   C     60.11000000    47.99000000    42.53000000
   C     60.80000000    49.00000000    43.22000000
   C     60.51000000    47.67000000    41.23000000
   C     61.94000000    49.59000000    42.68000000
   C     61.76000000    48.10000000    40.75000000
   C     62.46000000    49.08000000    41.47000000
   O     63.55000000    49.69000000    40.91000000
   H     57.63000000    44.82000000    43.20000000
   H     57.43000000    46.79000000    44.40000000
   H     58.33000000    48.59000000    43.48000000
   H     58.14000000    47.57000000    42.08000000
   H     60.38000000    49.38000000    44.14000000
   H     60.02000000    46.85000000    40.72000000
   H     62.46000000    50.38000000    43.21000000
   H     62.10000000    47.83000000    39.76000000
   H     63.89000000    49.14000000    40.20000000
   N     60.25000000    45.94000000    45.62000000
   C     61.11000000    45.78000000    46.77000000
   C     60.40000000    45.49000000    48.09000000
   O     60.64000000    44.45000000    48.69000000
   C     62.11000000    46.92000000    46.98000000
   C     62.83000000    47.44000000    45.74000000
   C     63.04000000    46.60000000    48.14000000
   C     63.63000000    46.36000000    45.02000000
   H     60.44000000    45.38000000    44.81000000
   H     61.69000000    44.87000000    46.61000000
   H     61.52000000    47.79000000    47.27000000
   H     63.55000000    48.19000000    46.05000000
   H     62.14000000    47.90000000    45.03000000
   H     63.95000000    47.19000000    48.07000000
   H     62.52000000    46.93000000    49.04000000
   H     63.19000000    45.52000000    48.17000000
   H     64.21000000    45.71000000    45.67000000
   H     62.99000000    45.60000000    44.56000000
   H     64.31000000    46.69000000    44.23000000
   N     59.50000000    46.31000000    48.64000000
   C     58.82000000    45.89000000    49.85000000
   C     59.68000000    45.98000000    51.10000000
   O     59.60000000    45.13000000    51.98000000
   C     57.63000000    46.80000000    50.15000000
   O     58.09000000    48.13000000    50.26000000
   H     59.37000000    47.22000000    48.23000000
   H     58.50000000    44.86000000    49.71000000
   H     57.19000000    46.48000000    51.09000000
   H     56.84000000    46.74000000    49.40000000
   H     57.33000000    48.67000000    50.50000000
   N     60.59000000    46.96000000    51.10000000
   C     61.55000000    46.99000000    52.19000000
   C     62.58000000    45.89000000    52.40000000
   O     63.25000000    45.96000000    53.42000000
   C     60.87000000    47.50000000    53.47000000
   H     60.53000000    47.74000000    50.46000000
   H     62.20000000    47.81000000    51.88000000
   H     60.26000000    48.38000000    53.25000000
   H     60.16000000    46.75000000    53.81000000
   H     61.57000000    47.59000000    54.30000000
   N     62.67000000    44.87000000    51.54000000
   C     63.51000000    43.70000000    51.68000000
   C     64.99000000    43.93000000    51.44000000
   O     65.41000000    44.56000000    50.47000000
   C     62.92000000    42.52000000    50.92000000
   H     61.91000000    44.71000000    50.88000000
   H     63.35000000    43.44000000    52.72000000
   H     61.90000000    42.35000000    51.27000000
   H     63.00000000    42.65000000    49.84000000
   H     63.43000000    41.59000000    51.16000000
   N     65.79000000    43.29000000    52.30000000
   C     67.23000000    43.16000000    52.25000000
   C     68.00000000    44.48000000    52.17000000
   O     69.12000000    44.50000000    51.67000000
   C     67.69000000    42.13000000    51.22000000
   C     67.08000000    40.73000000    51.32000000
   C     67.78000000    39.75000000    50.39000000
   O     67.56000000    38.52000000    50.52000000
   O     68.68000000    40.05000000    49.58000000
   H     65.33000000    42.74000000    53.01000000
   H     67.57000000    42.68000000    53.17000000
   H     68.76000000    41.96000000    51.23000000
   H     67.43000000    42.66000000    50.31000000
   H     66.01000000    40.75000000    51.11000000
   H     67.35000000    40.36000000    52.30000000
   N     67.45000000    45.57000000    52.71000000
   C     68.00000000    46.90000000    52.54000000
   H     68.97000000    46.83100000    52.04900000
   H     67.32500000    47.49700000    51.92700000
   H     68.12000000    47.37200000    53.51500000
   H     66.59000000    45.53000000    53.24000000
  Ca     69.16000000    37.77000000    48.27000000
   O     70.70000000    36.84000000    50.31000000
   H     71.62000000    36.88000000    50.58000000
   H     70.52000000    35.90000000    50.21000000
   O     70.44000000    35.58000000    47.35000000
   H     71.35000000    35.31000000    47.25000000
   H     69.93000000    34.83000000    47.03000000
   O     66.78000000    37.80000000    47.33000000
   H     66.26000000    37.46000000    48.05000000
   H     66.31000000    37.52000000    46.54000000
   O     67.99000000    35.56000000    49.34000000
   H     67.37000000    35.19000000    48.71000000
   H     67.79000000    35.09000000    50.16000000
   O     71.52000000    38.60000000    47.87000000
   H     72.19000000    38.36000000    47.23000000
   H     71.98000000    39.17000000    48.49000000

Ca 1.00



