%chk=loop1.holoCaM-CaMKII.run44.water2.chk
%nprocshared=20
%mem=10GB
%nosave
#b3lyp/svp scf=(tight,noincore,xqc) Test 
#IOP(5/87=12) Density=Current Pop=(MK,readradii) iop(6/33=2) iop(6/42=6)

loop1.holoCaM-CaMKII.run44.water2 

   0  1 
   C      0.23600000    23.66000000     4.24600000
   C      0.92600000    22.92000000     3.11600000
   O      1.48600000    21.86000000     3.38600000
   H     -0.76600000    23.25500000     4.38700000
   H      0.80900000    23.53700000     5.16500000
   H      0.16700000    24.71900000     3.99900000
   N      0.77600000    23.32000000     1.85600000
   C      1.23600000    22.61000000     0.67600000
   C      2.71600000    22.90000000     0.49600000
   O      3.15600000    23.79000000    -0.24400000
   C      0.39600000    22.99000000    -0.53400000
   C      0.83600000    22.46000000    -1.89400000
   O      0.42600000    23.00000000    -2.94400000
   O      1.59600000    21.47000000    -1.90400000
   H      0.31600000    24.21000000     1.73600000
   H      0.95600000    21.57000000     0.81600000
   H      0.33600000    24.08000000    -0.52400000
   H     -0.58400000    22.55000000    -0.34400000
   N      3.52600000    22.06000000     1.14600000
   C      4.95600000    22.31000000     1.19600000
   C      5.68600000    22.05000000    -0.11400000
   O      6.66600000    22.74000000    -0.39400000
   C      5.62600000    21.38000000     2.20600000
   C      5.21600000    21.61000000     3.65600000
   C      5.67600000    22.95000000     4.22600000
   C      5.85600000    22.99000000     5.73600000
   N      4.56600000    23.03000000     6.43600000
   H      3.21600000    21.18000000     1.53600000
   H      5.22600000    23.32000000     1.50600000
   H      6.70600000    21.33000000     2.10600000
   H      5.18600000    20.41000000     1.97600000
   H      5.66600000    20.81000000     4.24600000
   H      4.13600000    21.57000000     3.81600000
   H      5.09600000    23.79000000     3.84600000
   H      6.64600000    23.12000000     3.75600000
   H      6.41600000    23.89000000     5.99600000
   H      6.50600000    22.19000000     6.09600000
   H      3.91600000    22.38000000     6.01600000
   H      4.69600000    22.81000000     7.41600000
   H      4.09600000    23.93000000     6.42600000
   N      5.20600000    21.10000000    -0.91400000
   C      5.74600000    20.83000000    -2.23400000
   C      5.22600000    21.78000000    -3.31400000
   O      5.92600000    22.05000000    -4.28400000
   C      5.64600000    19.32000000    -2.50400000
   C      4.36600000    18.72000000    -1.94400000
   O      3.33600000    19.42000000    -1.89400000
   O      4.31600000    17.52000000    -1.59400000
   H      4.37600000    20.59000000    -0.65400000
   H      6.80600000    21.07000000    -2.23400000
   H      6.58600000    18.87000000    -2.17400000
   H      5.84600000    19.12000000    -3.55400000
   N      4.06600000    22.41000000    -3.14400000
   C      3.53600000    23.46000000    -3.97400000
   C      3.01600000    22.97000000    -5.32400000
   O      3.37600000    23.57000000    -6.33400000
   H      3.59600000    22.09000000    -2.30400000
   H      4.30600000    24.21000000    -4.15400000
   H      2.69600000    23.98000000    -3.49400000
   N      2.20600000    21.91000000    -5.20400000
   C      1.52600000    21.28000000    -6.31400000
   C      0.14600000    21.85000000    -6.62400000
   O     -0.39400000    21.57000000    -7.69400000
   C      1.50600000    19.77000000    -6.10400000
   C      1.05600000    19.34000000    -4.71400000
   O      0.23600000    20.03000000    -4.07400000
   O      1.60600000    18.34000000    -4.21400000
   H      2.06600000    21.60000000    -4.25400000
   H      2.09600000    21.44000000    -7.23400000
   H      2.52600000    19.42000000    -6.24400000
   H      0.82600000    19.37000000    -6.85400000
   N     -0.35400000    22.65000000    -5.67400000
   C     -1.68400000    23.22000000    -5.62400000
   C     -2.67400000    22.34000000    -4.88400000
   O     -3.88400000    22.54000000    -4.99400000
   H      0.21600000    22.80000000    -4.85400000
   H     -2.04400000    23.39000000    -6.63400000
   H     -1.57400000    24.13000000    -5.02400000
   N     -2.28400000    21.40000000    -4.02400000
   C     -3.14400000    20.51000000    -3.27400000
   C     -2.63400000    20.27000000    -1.86400000
   O     -1.41400000    20.17000000    -1.69400000
   C     -3.23400000    19.12000000    -3.91400000
   C     -4.37400000    18.96000000    -4.92400000
   O     -2.06400000    18.89000000    -4.66400000
   H     -1.31400000    21.16000000    -3.91400000
   H     -4.15400000    20.93000000    -3.26400000
   H     -3.37400000    18.30000000    -3.21400000
   H     -1.43400000    19.55000000    -4.38400000
   H     -4.43400000    17.94000000    -5.30400000
   H     -5.34400000    19.15000000    -4.46400000
   H     -4.22400000    19.63000000    -5.77400000
   N     -3.61400000    20.22000000    -0.95400000
   C     -3.40400000    19.85000000     0.42600000
   C     -3.72400000    18.40000000     0.76600000
   O     -4.91400000    18.11000000     0.71600000
   C     -4.04400000    20.82000000     1.42600000
   C     -3.77400000    22.27000000     1.03600000
   C     -3.52400000    20.48000000     2.81600000
   C     -4.51400000    23.29000000     1.88600000
   H     -4.51400000    20.53000000    -1.28400000
   H     -2.34400000    19.94000000     0.68600000
   H     -5.09400000    20.51000000     1.35600000
   H     -4.05400000    22.38000000    -0.01400000
   H     -2.70400000    22.42000000     1.19600000
   H     -3.92400000    21.25000000     3.47600000
   H     -3.89400000    19.56000000     3.26600000
   H     -2.43400000    20.50000000     2.74600000
   H     -4.62400000    24.26000000     1.39600000
   H     -5.54400000    22.96000000     2.06600000
   H     -4.05400000    23.53000000     2.84600000
   N     -2.77400000    17.61000000     1.26600000
   C     -2.95400000    16.26000000     1.75600000
   C     -3.35400000    16.22000000     3.22600000
   O     -3.27400000    17.21000000     3.94600000
   C     -1.68400000    15.45000000     1.52600000
   C     -1.39400000    15.34000000     0.02600000
   O     -0.50400000    15.98000000     2.09600000
   H     -1.81400000    17.91000000     1.16600000
   H     -3.74400000    15.77000000     1.18600000
   H     -1.77400000    14.46000000     1.98600000
   H     -0.41400000    16.78000000     1.55600000
   H     -0.96400000    14.36000000    -0.15400000
   H     -2.35400000    15.24000000    -0.48400000
   H     -0.68400000    16.12000000    -0.23400000
   N     -3.74400000    15.04000000     3.72600000
   C     -3.88400000    14.74000000     5.13600000
   C     -2.57400000    14.88000000     5.90600000
   O     -2.65400000    15.32000000     7.05600000
   C     -4.54400000    13.38000000     5.30600000
   C     -6.03400000    13.26000000     5.00600000
   O     -3.86400000    12.46000000     4.46600000
   H     -3.66400000    14.22000000     3.13600000
   H     -4.51400000    15.51000000     5.58600000
   H     -4.36400000    13.20000000     6.36600000
   H     -3.98400000    11.57000000     4.80600000
   H     -6.24400000    13.57000000     3.98600000
   H     -6.31400000    12.25000000     5.30600000
   H     -6.59400000    13.99000000     5.59600000
   N     -1.42400000    14.52000000     5.34600000
   C     -0.15400000    14.72000000     6.00600000
   C      0.22600000    16.18000000     6.17600000
   O      0.85600000    16.50000000     7.18600000
   C      0.82600000    13.95000000     5.11600000
   C      2.21600000    14.29000000     5.64600000
   C      3.25600000    13.38000000     4.98600000
   C      3.22600000    13.52000000     3.46600000
   N      3.79600000    12.32000000     2.83600000
   H     -1.48400000    14.22000000     4.38600000
   H     -0.17400000    14.18000000     6.95600000
   H      0.67600000    14.32000000     4.10600000
   H      0.59600000    12.89000000     5.27600000
   H      2.20600000    14.14000000     6.72600000
   H      2.33600000    15.35000000     5.44600000
   H      3.08600000    12.33000000     5.22600000
   H      4.23600000    13.69000000     5.34600000
   H      3.74600000    14.41000000     3.12600000
   H      2.18600000    13.58000000     3.14600000
   H      3.97600000    12.43000000     1.84600000
   H      4.66600000    12.07000000     3.27600000
   H      3.21600000    11.51000000     3.01600000
   N     -0.19400000    17.03000000     5.23600000
   C      0.09600000    18.45000000     5.13600000
   C     -0.74400000    19.27000000     6.10600000
   O     -0.12400000    20.15000000     6.69600000
   C     -0.13400000    18.85000000     3.68600000
   C      1.08600000    18.42000000     2.88600000
   C      0.88600000    18.79000000     1.41600000
   O     -0.15400000    18.42000000     0.83600000
   O      1.86600000    19.24000000     0.77600000
   H     -0.75400000    16.61000000     4.51600000
   H      1.15600000    18.55000000     5.36600000
   H     -0.21400000    19.93000000     3.58600000
   H     -1.01400000    18.29000000     3.35600000
   H      1.30600000    17.37000000     3.03600000
   H      1.96600000    19.00000000     3.19600000
   N     -1.97400000    18.81000000     6.35600000
   C     -2.80400000    19.42000000     7.37600000
   H     -3.77800000    18.93100000     7.39100000
   H     -2.32600000    19.30700000     8.34900000
   H     -2.93300000    20.47900000     7.15400000
   H     -2.36400000    18.01000000     5.88600000
  Ca      0.92000000    18.94000000    -1.73400000
   O     -0.93400000    17.08000000    -2.78400000
   H     -1.34400000    17.29000000    -3.62400000
   H     -0.89400000    16.12000000    -2.76400000
   O      2.01000000    16.50000000    -1.41400000
   H      2.96000000    16.56000000    -1.36400000
   H      1.81000000    15.64000000    -1.03400000

Ca 1.00



