%chk=loop3.apoCaM-CA-Ng.Init31.run18.water6.chk
%nprocshared=20
%mem=10GB
%nosave
#b3lyp/svp scf=(tight,noincore,xqc) Test 
#IOP(5/87=12) Density=Current Pop=(MK,readradii) iop(6/33=2) iop(6/42=6)

loop3.apoCaM-CA-Ng.Init31.run18.water6 

   0  1 
   C     93.36000000    82.32000000    19.71000000
   C     94.66000000    82.02000000    20.46000000
   O     94.70000000    81.47000000    21.56000000
   H     92.61300000    82.69100000    20.41200000
   H     93.54600000    83.07500000    18.94600000
   H     92.99300000    81.40800000    19.23900000
   N     95.80000000    82.32000000    19.83000000
   C     97.14000000    82.05000000    20.29000000
   C     97.67000000    83.05000000    21.31000000
   O     97.52000000    82.84000000    22.51000000
   C     98.14000000    81.80000000    19.16000000
   C     98.10000000    82.75000000    17.97000000
   O     97.87000000    83.97000000    18.10000000
   O     98.16000000    82.24000000    16.83000000
   H     95.69000000    82.92000000    19.02000000
   H     97.07000000    81.13000000    20.87000000
   H     98.03000000    80.75000000    18.87000000
   H     99.13000000    81.96000000    19.57000000
   N     98.32000000    84.17000000    20.97000000
   C     98.84000000    85.21000000    21.84000000
   C    100.15000000    84.76000000    22.45000000
   O    101.03000000    84.26000000    21.74000000
   C     98.83000000    86.53000000    21.07000000
   C     97.47000000    87.18000000    20.82000000
   C     97.54000000    88.40000000    19.91000000
   C     96.35000000    89.37000000    19.88000000
   N     95.13000000    88.71000000    19.40000000
   H     98.53000000    84.29000000    19.99000000
   H     98.11000000    85.22000000    22.65000000
   H     99.47000000    86.55000000    20.20000000
   H     99.39000000    87.23000000    21.70000000
   H     96.94000000    87.34000000    21.76000000
   H     96.81000000    86.45000000    20.35000000
   H     97.86000000    88.03000000    18.94000000
   H     98.42000000    88.97000000    20.22000000
   H     96.55000000    90.18000000    19.19000000
   H     96.16000000    89.73000000    20.89000000
   H     94.84000000    87.99000000    20.05000000
   H     94.36000000    89.35000000    19.27000000
   H     95.25000000    88.24000000    18.51000000
   N    100.25000000    84.75000000    23.78000000
   C    101.28000000    84.09000000    24.56000000
   C    101.09000000    82.58000000    24.62000000
   O    101.85000000    81.91000000    25.32000000
   C    101.42000000    84.82000000    25.89000000
   C    100.12000000    84.97000000    26.67000000
   O     99.96000000    85.96000000    27.41000000
   O     99.20000000    84.14000000    26.50000000
   H     99.53000000    85.26000000    24.27000000
   H    102.28000000    84.13000000    24.13000000
   H    101.73000000    85.84000000    25.66000000
   H    102.16000000    84.33000000    26.53000000
   N     99.98000000    82.05000000    24.11000000
   C     99.79000000    80.64000000    23.79000000
   C    100.56000000    80.20000000    22.56000000
   O    101.33000000    80.95000000    21.96000000
   H     99.33000000    82.74000000    23.75000000
   H     98.75000000    80.38000000    23.62000000
   H    100.16000000    80.08000000    24.65000000
   N    100.40000000    78.99000000    22.01000000
   C     99.39000000    78.01000000    22.35000000
   C     98.37000000    77.69000000    21.27000000
   O     98.73000000    77.24000000    20.19000000
   C    100.11000000    76.73000000    22.78000000
   C    101.08000000    76.78000000    23.95000000
   N    101.35000000    75.62000000    24.55000000
   O    101.38000000    77.82000000    24.52000000
   H    100.93000000    78.71000000    21.20000000
   H     98.86000000    78.38000000    23.23000000
   H    100.67000000    76.25000000    21.98000000
   H     99.33000000    75.98000000    22.95000000
   H    101.08000000    74.76000000    24.09000000
   H    101.80000000    75.68000000    25.45000000
   N     97.07000000    77.62000000    21.59000000
   C     96.33000000    78.33000000    22.61000000
   C     95.92000000    77.45000000    23.78000000
   O     95.45000000    78.07000000    24.72000000
   H     96.49000000    77.10000000    20.94000000
   H     95.39000000    78.66000000    22.16000000
   H     96.74000000    79.28000000    22.95000000
   N     96.26000000    76.16000000    23.81000000
   C     96.15000000    75.27000000    24.94000000
   C     97.43000000    75.25000000    25.78000000
   O     98.48000000    75.07000000    25.18000000
   C     95.81000000    73.84000000    24.51000000
   C     94.65000000    73.78000000    23.55000000
   C     93.43000000    74.44000000    23.74000000
   C     94.81000000    73.00000000    22.41000000
   C     92.38000000    74.38000000    22.83000000
   C     93.75000000    72.78000000    21.52000000
   C     92.58000000    73.55000000    21.70000000
   O     91.63000000    73.49000000    20.72000000
   H     96.72000000    75.82000000    22.97000000
   H     95.43000000    75.69000000    25.65000000
   H     95.54000000    73.22000000    25.37000000
   H     96.70000000    73.42000000    24.04000000
   H     93.35000000    75.08000000    24.61000000
   H     95.77000000    72.56000000    22.17000000
   H     91.41000000    74.84000000    22.93000000
   H     93.91000000    72.32000000    20.55000000
   H     91.77000000    72.83000000    20.04000000
   N     97.30000000    75.49000000    27.09000000
   C     98.49000000    75.69000000    27.89000000
   C     98.12000000    75.40000000    29.34000000
   O     99.00000000    75.13000000    30.16000000
   C     98.91000000    77.15000000    27.82000000
   C    100.43000000    77.19000000    27.97000000
   C     98.53000000    77.98000000    26.60000000
   C    100.95000000    78.58000000    28.34000000
   H     96.36000000    75.36000000    27.43000000
   H     99.27000000    74.99000000    27.60000000
   H     98.50000000    77.62000000    28.72000000
   H    100.96000000    76.86000000    27.07000000
   H    100.73000000    76.44000000    28.69000000
   H     98.84000000    79.02000000    26.76000000
   H     99.04000000    77.56000000    25.73000000
   H     97.46000000    78.17000000    26.62000000
   H    102.02000000    78.39000000    28.44000000
   H    100.78000000    79.23000000    27.48000000
   H    100.46000000    78.84000000    29.27000000
   N     96.86000000    75.37000000    29.78000000
   C     96.51000000    75.04000000    31.14000000
   C     95.40000000    75.88000000    31.77000000
   O     94.36000000    75.99000000    31.14000000
   C     96.08000000    73.59000000    31.30000000
   O     97.19000000    72.74000000    31.16000000
   H     96.11000000    75.59000000    29.14000000
   H     97.38000000    75.14000000    31.78000000
   H     95.32000000    73.39000000    30.54000000
   H     95.64000000    73.34000000    32.27000000
   H     97.21000000    72.55000000    30.21000000
   N     95.45000000    76.21000000    33.07000000
   C     94.30000000    76.73000000    33.78000000
   C     93.87000000    78.11000000    33.30000000
   O     94.76000000    78.91000000    33.01000000
   C     94.55000000    76.76000000    35.28000000
   H     96.23000000    75.84000000    33.59000000
   H     93.46000000    76.03000000    33.71000000
   H     93.72000000    77.17000000    35.86000000
   H     94.90000000    75.78000000    35.60000000
   H     95.44000000    77.37000000    35.49000000
   N     92.62000000    78.58000000    33.38000000
   C     92.01000000    79.86000000    33.09000000
   C     92.27000000    80.44000000    31.71000000
   O     92.25000000    81.66000000    31.52000000
   C     92.11000000    80.82000000    34.27000000
   H     91.94000000    77.91000000    33.72000000
   H     90.95000000    79.59000000    33.10000000
   H     91.41000000    81.65000000    34.28000000
   H     92.15000000    80.35000000    35.25000000
   H     93.13000000    81.20000000    34.25000000
   N     92.43000000    79.59000000    30.70000000
   C     92.44000000    79.95000000    29.30000000
   C     91.14000000    79.88000000    28.50000000
   O     91.01000000    80.45000000    27.42000000
   C     93.51000000    79.06000000    28.69000000
   C     94.97000000    79.32000000    29.08000000
   C     95.45000000    80.76000000    28.96000000
   O     95.14000000    81.35000000    27.90000000
   O     96.00000000    81.40000000    29.88000000
   H     92.61000000    78.62000000    30.91000000
   H     92.94000000    80.92000000    29.23000000
   H     93.52000000    79.07000000    27.60000000
   H     93.28000000    78.05000000    29.03000000
   H     95.64000000    78.65000000    28.54000000
   H     94.95000000    79.13000000    30.15000000
   N     90.18000000    79.09000000    29.00000000
   C     88.98000000    78.65000000    28.33000000
   H     88.21000000    79.41600000    28.42500000
   H     89.19400000    78.48000000    27.27500000
   H     88.62800000    77.72400000    28.78400000
   H     90.33000000    78.77000000    29.95000000
  Ca     96.89000000    83.23000000    27.79000000
   O     98.58000000    83.81000000    29.90000000
   H     99.49000000    83.55000000    29.81000000
   H     98.31000000    83.48000000    30.76000000
   O     97.16000000    85.91000000    27.90000000
   H     96.66000000    86.71000000    28.03000000
   H     98.06000000    86.20000000    27.78000000
   O     95.24000000    83.93000000    29.96000000
   H     94.33000000    84.24000000    29.94000000
   H     95.17000000    83.01000000    30.22000000
   O     98.91000000    81.51000000    28.03000000
   H     99.79000000    81.54000000    27.65000000
   H     99.01000000    80.99000000    28.83000000
   O     96.95000000    82.49000000    25.16000000
   H     97.10000000    82.74000000    24.25000000
   H     96.26000000    81.83000000    25.12000000
   O     94.55000000    84.00000000    26.89000000
   H     93.74000000    83.53000000    27.07000000
   H     94.28000000    84.91000000    26.79000000

Ca 1.00



