%chk=loop3.holoCaM-CaMKII.run7.water3.chk
%nprocshared=20
%mem=10GB
%nosave
#b3lyp/svp scf=(tight,noincore,xqc) Test 
#IOP(5/87=12) Density=Current Pop=(MK,readradii) iop(6/33=2) iop(6/42=6)

loop3.holoCaM-CaMKII.run7.water3 

   0  1 
   C     67.26000000    54.39000000    20.71000000
   C     66.31000000    53.27000000    20.30000000
   O     66.70000000    52.47000000    19.45000000
   H     68.16700000    54.33500000    20.10800000
   H     66.77700000    55.35400000    20.55000000
   H     67.51700000    54.28200000    21.76400000
   N     65.08000000    53.20000000    20.80000000
   C     64.17000000    52.09000000    20.58000000
   C     63.32000000    52.27000000    19.33000000
   O     62.12000000    52.54000000    19.34000000
   C     63.29000000    51.73000000    21.77000000
   C     62.49000000    50.44000000    21.59000000
   O     61.45000000    50.27000000    22.26000000
   O     62.96000000    49.61000000    20.79000000
   H     64.79000000    53.95000000    21.41000000
   H     64.75000000    51.19000000    20.34000000
   H     62.67000000    52.60000000    21.96000000
   H     64.01000000    51.60000000    22.57000000
   N     64.01000000    52.32000000    18.19000000
   C     63.47000000    52.76000000    16.92000000
   C     62.55000000    51.73000000    16.27000000
   O     61.87000000    52.09000000    15.31000000
   C     64.59000000    53.05000000    15.93000000
   C     65.57000000    51.93000000    15.58000000
   C     66.43000000    52.24000000    14.36000000
   C     67.77000000    51.53000000    14.27000000
   N     67.67000000    50.06000000    14.21000000
   H     65.00000000    52.16000000    18.15000000
   H     62.88000000    53.66000000    17.11000000
   H     65.09000000    53.98000000    16.20000000
   H     64.05000000    53.13000000    14.98000000
   H     65.10000000    50.96000000    15.42000000
   H     66.29000000    51.80000000    16.39000000
   H     66.67000000    53.30000000    14.41000000
   H     65.84000000    52.19000000    13.44000000
   H     68.35000000    51.71000000    15.18000000
   H     68.46000000    51.87000000    13.51000000
   H     66.80000000    49.72000000    14.59000000
   H     67.96000000    49.74000000    13.29000000
   H     68.30000000    49.64000000    14.88000000
   N     62.44000000    50.48000000    16.72000000
   C     61.32000000    49.60000000    16.48000000
   C     60.32000000    49.53000000    17.63000000
   O     59.18000000    49.28000000    17.26000000
   C     61.79000000    48.21000000    16.06000000
   C     62.62000000    47.50000000    17.12000000
   O     62.61000000    46.25000000    17.11000000
   O     63.32000000    48.11000000    17.95000000
   H     63.08000000    50.20000000    17.46000000
   H     60.75000000    49.97000000    15.62000000
   H     62.44000000    48.35000000    15.20000000
   H     60.98000000    47.51000000    15.82000000
   N     60.63000000    49.88000000    18.88000000
   C     59.62000000    50.34000000    19.80000000
   C     59.03000000    49.19000000    20.60000000
   O     57.88000000    49.25000000    21.04000000
   H     61.53000000    50.32000000    19.00000000
   H     58.85000000    50.87000000    19.23000000
   H     60.04000000    51.08000000    20.48000000
   N     59.79000000    48.14000000    20.93000000
   C     59.31000000    46.96000000    21.62000000
   C     59.35000000    47.11000000    23.14000000
   O     59.02000000    46.11000000    23.77000000
   C     60.21000000    45.87000000    21.05000000
   C     61.59000000    45.90000000    21.71000000
   N     61.95000000    44.85000000    22.45000000
   O     62.34000000    46.86000000    21.56000000
   H     60.72000000    48.20000000    20.54000000
   H     58.28000000    46.76000000    21.34000000
   H     60.27000000    45.98000000    19.97000000
   H     59.71000000    44.92000000    21.22000000
   H     61.39000000    44.03000000    22.61000000
   H     62.86000000    44.87000000    22.89000000
   N     59.99000000    48.14000000    23.69000000
   C     60.16000000    48.29000000    25.12000000
   C     61.59000000    48.17000000    25.62000000
   O     61.78000000    48.32000000    26.83000000
   H     60.47000000    48.73000000    23.03000000
   H     59.51000000    47.55000000    25.60000000
   H     59.81000000    49.24000000    25.53000000
   N     62.56000000    47.88000000    24.75000000
   C     63.91000000    47.51000000    25.12000000
   C     65.00000000    48.10000000    24.24000000
   O     64.81000000    48.10000000    23.03000000
   C     63.88000000    45.98000000    25.22000000
   C     63.00000000    45.32000000    26.25000000
   C     63.42000000    45.27000000    27.58000000
   C     61.68000000    44.93000000    25.96000000
   C     62.60000000    44.66000000    28.54000000
   C     60.82000000    44.46000000    26.95000000
   C     61.27000000    44.30000000    28.27000000
   O     60.41000000    43.94000000    29.27000000
   H     62.41000000    47.67000000    23.77000000
   H     64.06000000    47.90000000    26.13000000
   H     64.90000000    45.63000000    25.38000000
   H     63.72000000    45.57000000    24.22000000
   H     64.45000000    45.55000000    27.78000000
   H     61.20000000    45.22000000    25.04000000
   H     63.11000000    44.35000000    29.44000000
   H     59.81000000    44.33000000    26.59000000
   H     59.49000000    43.82000000    29.02000000
   N     66.06000000    48.69000000    24.80000000
   C     67.21000000    49.23000000    24.10000000
   C     68.31000000    48.18000000    24.10000000
   O     68.64000000    47.66000000    25.17000000
   C     67.60000000    50.58000000    24.69000000
   C     66.53000000    51.66000000    24.66000000
   C     68.91000000    51.06000000    24.08000000
   C     66.75000000    53.00000000    25.36000000
   H     66.20000000    48.55000000    25.79000000
   H     66.94000000    49.41000000    23.06000000
   H     67.78000000    50.35000000    25.74000000
   H     65.59000000    51.21000000    25.01000000
   H     66.19000000    51.96000000    23.67000000
   H     69.72000000    50.48000000    24.51000000
   H     68.90000000    50.96000000    22.99000000
   H     69.13000000    52.08000000    24.39000000
   H     67.03000000    52.90000000    26.41000000
   H     67.57000000    53.48000000    24.81000000
   H     65.88000000    53.65000000    25.28000000
   N     68.90000000    47.98000000    22.92000000
   C     69.81000000    46.89000000    22.62000000
   C     71.22000000    47.42000000    22.39000000
   O     71.43000000    48.59000000    22.06000000
   C     69.23000000    45.99000000    21.54000000
   O     68.89000000    46.74000000    20.39000000
   H     68.70000000    48.63000000    22.17000000
   H     69.89000000    46.34000000    23.56000000
   H     68.28000000    45.56000000    21.86000000
   H     69.95000000    45.22000000    21.26000000
   H     68.16000000    47.32000000    20.59000000
   N     72.24000000    46.57000000    22.39000000
   C     73.56000000    47.07000000    22.06000000
   C     73.73000000    47.62000000    20.65000000
   O     74.44000000    48.60000000    20.43000000
   C     74.71000000    46.10000000    22.32000000
   H     72.10000000    45.59000000    22.61000000
   H     73.87000000    47.91000000    22.69000000
   H     75.63000000    46.60000000    22.01000000
   H     74.79000000    45.73000000    23.34000000
   H     74.68000000    45.13000000    21.81000000
   N     73.03000000    46.96000000    19.72000000
   C     72.94000000    47.42000000    18.35000000
   C     72.14000000    48.71000000    18.18000000
   O     72.29000000    49.42000000    17.19000000
   C     72.54000000    46.23000000    17.48000000
   H     72.42000000    46.19000000    19.96000000
   H     73.96000000    47.68000000    18.08000000
   H     73.23000000    45.44000000    17.77000000
   H     71.58000000    45.85000000    17.82000000
   H     72.59000000    46.37000000    16.40000000
   N     71.36000000    49.15000000    19.17000000
   C     70.71000000    50.44000000    19.28000000
   C     71.51000000    51.58000000    19.88000000
   O     71.60000000    52.66000000    19.30000000
   C     69.34000000    50.23000000    19.92000000
   C     68.41000000    49.50000000    18.95000000
   C     67.07000000    49.17000000    19.57000000
   O     65.97000000    49.45000000    19.05000000
   O     67.01000000    48.55000000    20.66000000
   H     71.32000000    48.51000000    19.96000000
   H     70.60000000    50.77000000    18.25000000
   H     68.88000000    51.19000000    20.15000000
   H     69.56000000    49.63000000    20.81000000
   H     68.93000000    48.66000000    18.49000000
   H     68.13000000    50.20000000    18.16000000
   N     72.21000000    51.27000000    20.98000000
   C     73.24000000    52.13000000    21.53000000
   H     74.10300000    52.13400000    20.86400000
   H     72.85300000    53.14400000    21.62900000
   H     73.54000000    51.75800000    22.51000000
   H     71.96000000    50.40000000    21.41000000
  Ca     64.44000000    47.69000000    20.17000000
   O     63.53000000    45.13000000    19.22000000
   H     63.20000000    45.52000000    18.41000000
   H     63.62000000    44.20000000    19.01000000
   O     65.99000000    45.99000000    18.56000000
   H     65.47000000    45.19000000    18.48000000
   H     66.60000000    45.95000000    17.82000000
   O     65.37000000    45.69000000    21.69000000
   H     65.25000000    44.91000000    21.16000000
   H     65.84000000    45.39000000    22.47000000

Ca 1.00



