%chk=loop4.apoCaM-CA-Ng.Init293.run42.water4.chk
%nprocshared=20
%mem=10GB
%nosave
#b3lyp/svp scf=(tight,noincore,xqc) Test 
#IOP(5/87=12) Density=Current Pop=(MK,readradii) iop(6/33=2) iop(6/42=6)

loop4.apoCaM-CA-Ng.Init293.run42.water4 

   -3  1 
   C     18.54000000    91.10000000    -7.17000000
   C     18.43000000    91.66000000    -8.58000000
   O     19.40000000    92.37000000    -8.82000000
   H     19.04300000    91.82500000    -6.53000000
   H     17.54200000    90.90100000    -6.77800000
   H     19.11400000    90.17400000    -7.19000000
   N     17.36000000    91.44000000    -9.35000000
   C     17.17000000    91.85000000   -10.72000000
   C     18.37000000    91.63000000   -11.64000000
   O     19.34000000    92.39000000   -11.71000000
   C     16.54000000    93.23000000   -10.87000000
   C     17.03000000    94.44000000   -10.09000000
   O     16.32000000    94.90000000    -9.17000000
   O     18.06000000    95.03000000   -10.50000000
   H     16.64000000    90.83000000    -8.99000000
   H     16.39000000    91.24000000   -11.16000000
   H     15.56000000    93.04000000   -10.43000000
   H     16.48000000    93.48000000   -11.93000000
   N     18.36000000    90.43000000   -12.23000000
   C     19.34000000    89.81000000   -13.10000000
   C     19.83000000    90.57000000   -14.32000000
   O     20.47000000    89.87000000   -15.09000000
   C     20.45000000    89.12000000   -12.30000000
   C     19.98000000    88.08000000   -11.29000000
   C     21.46000000    89.99000000   -11.56000000
   C     18.77000000    87.22000000   -11.64000000
   H     17.53000000    89.87000000   -12.14000000
   H     18.81000000    89.00000000   -13.61000000
   H     20.93000000    88.57000000   -13.11000000
   H     19.68000000    88.62000000   -10.39000000
   H     20.73000000    87.36000000   -10.98000000
   H     22.29000000    89.37000000   -11.24000000
   H     21.81000000    90.81000000   -12.19000000
   H     21.07000000    90.37000000   -10.62000000
   H     17.86000000    87.76000000   -11.87000000
   H     18.96000000    86.58000000   -12.50000000
   H     18.52000000    86.55000000   -10.81000000
   N     19.42000000    91.82000000   -14.56000000
   C     19.37000000    92.50000000   -15.84000000
   C     20.61000000    93.35000000   -16.11000000
   O     21.07000000    94.07000000   -15.23000000
   C     18.07000000    93.30000000   -15.85000000
   C     17.92000000    94.16000000   -17.10000000
   O     18.28000000    95.35000000   -17.03000000
   O     17.45000000    93.66000000   -18.15000000
   H     18.89000000    92.21000000   -13.80000000
   H     19.34000000    91.81000000   -16.68000000
   H     17.96000000    93.87000000   -14.93000000
   H     17.29000000    92.54000000   -15.79000000
   N     21.28000000    93.43000000   -17.26000000
   C     21.04000000    92.63000000   -18.44000000
   C     22.29000000    92.80000000   -19.29000000
   O     22.92000000    93.85000000   -19.34000000
   H     22.06000000    94.06000000   -17.32000000
   H     20.20000000    93.11000000   -18.94000000
   H     20.84000000    91.59000000   -18.18000000
   N     22.74000000    91.79000000   -20.04000000
   C     22.05000000    90.53000000   -20.29000000
   C     22.03000000    89.54000000   -19.14000000
   O     20.96000000    88.95000000   -19.03000000
   C     22.69000000    89.96000000   -21.56000000
   C     21.88000000    88.77000000   -22.04000000
   O     20.72000000    88.98000000   -22.47000000
   O     22.55000000    87.73000000   -22.24000000
   H     23.61000000    91.94000000   -20.53000000
   H     21.02000000    90.83000000   -20.48000000
   H     23.71000000    89.67000000   -21.33000000
   H     22.66000000    90.63000000   -22.42000000
   N     23.09000000    89.16000000   -18.42000000
   C     24.42000000    89.72000000   -18.47000000
   C     25.46000000    88.88000000   -17.74000000
   O     25.36000000    87.68000000   -17.49000000
   H     22.92000000    88.61000000   -17.59000000
   H     24.46000000    90.65000000   -17.90000000
   H     24.81000000    89.77000000   -19.48000000
   N     26.59000000    89.55000000   -17.53000000
   C     27.90000000    89.02000000   -17.18000000
   C     28.08000000    88.66000000   -15.72000000
   O     29.13000000    88.97000000   -15.16000000
   C     28.94000000    89.93000000   -17.82000000
   C     28.79000000    90.27000000   -19.30000000
   C     29.60000000    91.53000000   -19.60000000
   N     28.91000000    92.51000000   -20.18000000
   O     30.82000000    91.62000000   -19.51000000
   H     26.50000000    90.55000000   -17.62000000
   H     28.01000000    88.10000000   -17.75000000
   H     29.92000000    89.46000000   -17.69000000
   H     28.96000000    90.88000000   -17.29000000
   H     27.75000000    90.39000000   -19.58000000
   H     29.15000000    89.42000000   -19.88000000
   H     27.93000000    92.41000000   -20.36000000
   H     29.42000000    93.35000000   -20.42000000
   N     27.00000000    88.18000000   -15.09000000
   C     27.05000000    87.67000000   -13.73000000
   C     27.24000000    88.79000000   -12.72000000
   O     26.49000000    89.76000000   -12.71000000
   C     25.88000000    86.72000000   -13.51000000
   C     25.89000000    86.13000000   -12.10000000
   C     25.87000000    85.54000000   -14.48000000
   H     26.14000000    88.05000000   -15.60000000
   H     27.96000000    87.06000000   -13.72000000
   H     25.00000000    87.34000000   -13.65000000
   H     25.03000000    85.51000000   -11.87000000
   H     26.80000000    85.53000000   -12.08000000
   H     25.93000000    86.86000000   -11.29000000
   H     25.12000000    84.76000000   -14.30000000
   H     25.65000000    85.94000000   -15.47000000
   H     26.88000000    85.15000000   -14.54000000
   N     28.28000000    88.64000000   -11.89000000
   C     28.65000000    89.35000000   -10.68000000
   C     29.18000000    90.75000000   -10.99000000
   O     29.36000000    91.55000000   -10.08000000
   C     29.55000000    88.54000000    -9.76000000
   C     28.87000000    87.30000000    -9.21000000
   N     29.00000000    86.11000000    -9.81000000
   O     28.29000000    87.41000000    -8.13000000
   H     28.89000000    87.87000000   -12.12000000
   H     27.71000000    89.60000000   -10.18000000
   H     29.75000000    89.14000000    -8.88000000
   H     30.47000000    88.20000000   -10.24000000
   H     29.54000000    86.00000000   -10.65000000
   H     28.42000000    85.34000000    -9.50000000
   N     29.41000000    91.01000000   -12.28000000
   C     29.75000000    92.31000000   -12.82000000
   C     28.73000000    93.41000000   -12.55000000
   O     27.60000000    93.23000000   -12.99000000
   C     30.02000000    92.16000000   -14.32000000
   C     30.62000000    93.41000000   -14.92000000
   C     29.71000000    94.34000000   -15.43000000
   C     31.98000000    93.63000000   -15.14000000
   C     30.20000000    95.53000000   -16.00000000
   C     32.47000000    94.82000000   -15.70000000
   C     31.57000000    95.77000000   -16.22000000
   O     32.06000000    96.89000000   -16.83000000
   H     29.33000000    90.24000000   -12.92000000
   H     30.71000000    92.66000000   -12.44000000
   H     29.08000000    91.90000000   -14.80000000
   H     30.80000000    91.41000000   -14.41000000
   H     28.63000000    94.21000000   -15.42000000
   H     32.66000000    92.86000000   -14.78000000
   H     29.52000000    96.32000000   -16.26000000
   H     33.52000000    95.06000000   -15.70000000
   H     33.02000000    96.87000000   -16.84000000
   N     29.01000000    94.44000000   -11.74000000
   C     28.08000000    95.41000000   -11.21000000
   C     27.06000000    94.87000000   -10.22000000
   O     26.46000000    95.60000000    -9.43000000
   C     27.38000000    96.23000000   -12.29000000
   C     28.29000000    97.08000000   -13.18000000
   C     28.87000000    98.23000000   -12.38000000
   O     30.09000000    98.49000000   -12.32000000
   O     28.12000000    98.93000000   -11.66000000
   H     29.93000000    94.36000000   -11.32000000
   H     28.58000000    96.11000000   -10.55000000
   H     26.54000000    96.82000000   -11.91000000
   H     26.86000000    95.52000000   -12.94000000
   H     27.72000000    97.41000000   -14.05000000
   H     29.12000000    96.47000000   -13.53000000
   N     26.76000000    93.57000000   -10.21000000
   C     25.90000000    92.88000000    -9.28000000
   C     26.51000000    92.61000000    -7.91000000
   O     25.70000000    92.41000000    -7.00000000
   C     25.28000000    91.62000000    -9.88000000
   C     24.36000000    91.84000000   -11.07000000
   C     23.16000000    92.73000000   -10.79000000
   O     22.47000000    92.76000000    -9.75000000
   O     22.80000000    93.56000000   -11.66000000
   H     27.15000000    92.96000000   -10.92000000
   H     25.07000000    93.55000000    -9.02000000
   H     24.71000000    91.02000000    -9.18000000
   H     26.06000000    90.91000000   -10.18000000
   H     24.06000000    90.92000000   -11.57000000
   H     25.01000000    92.37000000   -11.78000000
   N     27.83000000    92.48000000    -7.75000000
   C     28.54000000    92.40000000    -6.49000000
   H     29.43700000    93.01700000    -6.53900000
   H     27.89700000    92.75900000    -5.68600000
   H     28.82200000    91.36500000    -6.29600000
   H     28.33000000    92.67000000    -8.60000000
  Ca     20.55000000    94.36000000   -10.32200000
   O     20.11000000    94.98000000   -12.79200000
   H     19.51000000    95.66000000   -13.10200000
   H     20.32000000    94.47000000   -13.57200000
   O     23.15000000    95.83000000    -9.50200000
   H     23.19000000    96.57000000   -10.10200000
   H     23.96000000    95.34000000    -9.69200000
   O     20.51000000    96.95000000    -9.92200000
   H     20.58000000    97.55000000   -10.67200000
   H     20.71000000    97.50000000    -9.16200000
   O     20.70000000    94.50000000    -7.77200000
   H     20.91000000    93.71000000    -7.26200000
   H     20.57000000    95.18000000    -7.11200000

Ca 1.00



