%chk=loop1.holoCaM-CaMKII.run45.water2.chk
%nprocshared=20
%mem=10GB
%nosave
#b3lyp/svp scf=(tight,noincore,xqc) Test 
#IOP(5/87=12) Density=Current Pop=(MK,readradii) iop(6/33=2) iop(6/42=6)

loop1.holoCaM-CaMKII.run45.water2 

   0  1 
   C      2.01000000    28.14000000    12.76100000
   C      2.25000000    26.86000000    11.97100000
   O      2.29000000    25.80000000    12.58100000
   H      0.99900000    28.13100000    13.16800000
   H      2.72900000    28.20400000    13.57800000
   H      2.12900000    29.00100000    12.10300000
   N      2.55000000    26.97000000    10.67100000
   C      2.84000000    25.88000000     9.77100000
   C      4.31000000    25.48000000     9.83100000
   O      5.13000000    25.65000000     8.93100000
   C      2.28000000    26.11000000     8.36100000
   C      2.65000000    24.92000000     7.48100000
   O      2.85000000    25.10000000     6.26100000
   O      2.72000000    23.81000000     8.05100000
   H      2.44000000    27.90000000    10.27100000
   H      2.30000000    25.04000000    10.19100000
   H      2.79000000    27.00000000     7.99100000
   H      1.22000000    26.31000000     8.49100000
   N      4.68000000    24.90000000    10.97100000
   C      6.09000000    24.65000000    11.23100000
   C      6.85000000    23.54000000    10.52100000
   O      8.07000000    23.53000000    10.65100000
   C      6.26000000    24.47000000    12.74100000
   C      6.33000000    25.76000000    13.56100000
   C      6.70000000    25.50000000    15.02100000
   C      6.97000000    26.75000000    15.85100000
   N      5.66000000    27.32000000    16.21100000
   H      4.02000000    24.65000000    11.69100000
   H      6.67000000    25.54000000    10.96100000
   H      7.21000000    24.01000000    12.99100000
   H      5.46000000    23.85000000    13.12100000
   H      5.45000000    26.38000000    13.42100000
   H      7.15000000    26.31000000    13.09100000
   H      7.63000000    24.93000000    15.00100000
   H      5.92000000    24.88000000    15.47100000
   H      7.57000000    27.42000000    15.23100000
   H      7.53000000    26.50000000    16.75100000
   H      5.13000000    26.74000000    16.84100000
   H      5.82000000    28.15000000    16.76100000
   H      5.15000000    27.58000000    15.37100000
   N      6.15000000    22.63000000     9.85100000
   C      6.64000000    21.47000000     9.12100000
   C      6.39000000    21.41000000     7.62100000
   O      6.97000000    20.55000000     6.97100000
   C      6.03000000    20.22000000     9.75100000
   C      4.53000000    20.22000000    10.01100000
   O      3.80000000    21.10000000     9.50100000
   O      4.13000000    19.27000000    10.72100000
   H      5.15000000    22.75000000     9.87100000
   H      7.71000000    21.46000000     9.31100000
   H      6.63000000    20.14000000    10.66100000
   H      6.38000000    19.35000000     9.20100000
   N      5.73000000    22.46000000     7.13100000
   C      5.97000000    23.12000000     5.86100000
   C      5.05000000    22.75000000     4.70100000
   O      5.36000000    22.83000000     3.52100000
   H      5.17000000    22.97000000     7.80100000
   H      7.00000000    22.88000000     5.58100000
   H      5.84000000    24.19000000     6.02100000
   N      3.88000000    22.20000000     5.02100000
   C      3.02000000    21.51000000     4.08100000
   C      2.07000000    22.37000000     3.25100000
   O      1.39000000    21.93000000     2.33100000
   C      2.34000000    20.34000000     4.78100000
   C      1.76000000    20.71000000     6.13100000
   O      2.04000000    20.00000000     7.13100000
   O      1.06000000    21.73000000     6.29100000
   H      3.52000000    22.21000000     5.97100000
   H      3.60000000    21.02000000     3.30100000
   H      3.06000000    19.53000000     4.86100000
   H      1.57000000    19.99000000     4.09100000
   N      1.97000000    23.63000000     3.69100000
   C      1.09000000    24.67000000     3.19100000
   C     -0.24000000    24.64000000     3.92100000
   O     -1.18000000    25.23000000     3.39100000
   H      2.49000000    23.85000000     4.52100000
   H      0.85000000    24.49000000     2.14100000
   H      1.55000000    25.66000000     3.18100000
   N     -0.27000000    23.97000000     5.08100000
   C     -1.46000000    23.75000000     5.87100000
   C     -1.30000000    24.05000000     7.35100000
   O     -0.37000000    23.50000000     7.94100000
   C     -2.15000000    22.42000000     5.60100000
   C     -2.80000000    22.43000000     4.22100000
   O     -1.27000000    21.32000000     5.62100000
   H      0.55000000    23.52000000     5.46100000
   H     -2.14000000    24.57000000     5.63100000
   H     -2.94000000    22.38000000     6.35100000
   H     -0.42000000    21.60000000     5.96100000
   H     -3.60000000    23.16000000     4.34100000
   H     -2.13000000    22.59000000     3.38100000
   H     -3.36000000    21.52000000     3.99100000
   N     -2.30000000    24.69000000     7.97100000
   C     -2.36000000    24.88000000     9.40100000
   C     -3.37000000    23.98000000    10.10100000
   O     -4.55000000    24.10000000     9.77100000
   C     -2.58000000    26.35000000     9.74100000
   C     -1.41000000    27.25000000     9.36100000
   C     -2.83000000    26.46000000    11.24100000
   C     -1.73000000    28.74000000     9.35100000
   H     -3.02000000    25.11000000     7.40100000
   H     -1.36000000    24.65000000     9.79100000
   H     -3.52000000    26.72000000     9.32100000
   H     -0.99000000    26.92000000     8.41100000
   H     -0.54000000    27.14000000    10.00100000
   H     -3.86000000    26.22000000    11.49100000
   H     -2.17000000    25.82000000    11.82100000
   H     -2.68000000    27.48000000    11.60100000
   H     -2.01000000    29.07000000    10.35100000
   H     -0.84000000    29.31000000     9.09100000
   H     -2.46000000    29.00000000     8.58100000
   N     -2.97000000    23.22000000    11.11100000
   C     -3.84000000    22.45000000    11.97100000
   C     -4.44000000    23.27000000    13.11100000
   O     -4.10000000    24.39000000    13.46100000
   C     -3.12000000    21.20000000    12.50100000
   C     -2.79000000    20.17000000    11.43100000
   O     -1.97000000    21.45000000    13.28100000
   H     -1.99000000    23.25000000    11.37100000
   H     -4.70000000    22.05000000    11.44100000
   H     -3.83000000    20.76000000    13.20100000
   H     -1.22000000    20.96000000    12.94100000
   H     -3.68000000    19.71000000    11.00100000
   H     -2.34000000    20.78000000    10.65100000
   H     -2.15000000    19.36000000    11.77100000
   N     -5.47000000    22.68000000    13.72100000
   C     -5.99000000    23.13000000    15.00100000
   C     -4.87000000    23.26000000    16.02100000
   O     -4.74000000    24.34000000    16.59100000
   C     -7.00000000    22.15000000    15.58100000
   C     -8.29000000    22.07000000    14.77100000
   O     -6.57000000    20.81000000    15.61100000
   H     -5.75000000    21.80000000    13.31100000
   H     -6.41000000    24.13000000    14.84100000
   H     -7.32000000    22.53000000    16.55100000
   H     -7.20000000    20.36000000    16.18100000
   H     -8.16000000    21.64000000    13.78100000
   H     -9.02000000    21.55000000    15.38100000
   H     -8.72000000    23.04000000    14.49100000
   N     -4.08000000    22.20000000    16.15100000
   C     -2.96000000    22.12000000    17.07100000
   C     -1.91000000    23.16000000    16.74100000
   O     -1.29000000    23.75000000    17.62100000
   C     -2.35000000    20.72000000    17.13100000
   C     -1.49000000    20.51000000    18.37100000
   C     -1.13000000    19.05000000    18.66100000
   C     -0.27000000    18.86000000    19.91100000
   N      1.17000000    18.97000000    19.64100000
   H     -4.29000000    21.30000000    15.73100000
   H     -3.33000000    22.28000000    18.08100000
   H     -1.65000000    20.53000000    16.32100000
   H     -3.10000000    19.94000000    17.01100000
   H     -1.89000000    20.98000000    19.27100000
   H     -0.57000000    21.09000000    18.26100000
   H     -0.58000000    18.64000000    17.81100000
   H     -2.03000000    18.51000000    18.94100000
   H     -0.57000000    17.86000000    20.23100000
   H     -0.34000000    19.64000000    20.67100000
   H      1.78000000    18.76000000    20.41100000
   H      1.44000000    18.31000000    18.93100000
   H      1.42000000    19.92000000    19.38100000
   N     -1.66000000    23.43000000    15.45100000
   C     -0.70000000    24.44000000    15.07100000
   C     -1.15000000    25.85000000    15.45100000
   O     -0.20000000    26.51000000    15.87100000
   C     -0.47000000    24.33000000    13.57100000
   C      0.49000000    23.19000000    13.25100000
   C      0.65000000    22.96000000    11.76100000
   O     -0.21000000    22.56000000    10.95100000
   O      1.81000000    22.95000000    11.30100000
   H     -2.25000000    22.91000000    14.82100000
   H      0.26000000    24.23000000    15.55100000
   H      0.11000000    25.17000000    13.19100000
   H     -1.47000000    24.27000000    13.13100000
   H      0.14000000    22.27000000    13.72100000
   H      1.46000000    23.44000000    13.70100000
   N     -2.42000000    26.24000000    15.57100000
   C     -2.80000000    27.54000000    16.07100000
   H     -3.78900000    27.47900000    16.52500000
   H     -2.07700000    27.86800000    16.81800000
   H     -2.82200000    28.25400000    15.24800000
   H     -3.13000000    25.54000000    15.42100000
  Ca      1.35000000    21.81000000     8.93000000
   O     -0.83900000    20.24000000     8.47000000
   H     -1.06900000    19.53000000     7.87000000
   H     -1.66900000    20.47000000     8.90000000
   O      1.31000000    19.27000000    10.22000000
   H      2.25000000    19.09000000    10.29000000
   H      0.96000000    18.52000000     9.74000000

Ca 1.00



