%chk=loop3.apoCaM-CA-Ng.Init295.run97.water5.chk
%nprocshared=20
%mem=10GB
%nosave
#b3lyp/svp scf=(tight,noincore,xqc) Test 
#IOP(5/87=12) Density=Current Pop=(MK,readradii) iop(6/33=2) iop(6/42=6)

loop3.apoCaM-CA-Ng.Init295.run97.water5 

   0  1 
   C     98.40000000    81.09000000    75.73000000
   C     97.40000000    80.10000000    76.30000000
   O     96.43000000    79.70000000    75.65000000
   H     99.32900000    80.57100000    75.49200000
   H     97.99200000    81.53800000    74.82400000
   H     98.59800000    81.87100000    76.46500000
   N     97.57000000    79.56000000    77.51000000
   C     96.81000000    78.47000000    78.08000000
   C     96.49000000    78.97000000    79.48000000
   O     97.26000000    79.64000000    80.17000000
   C     97.58000000    77.15000000    78.07000000
   C     96.86000000    75.94000000    78.65000000
   O     96.73000000    74.98000000    77.86000000
   O     96.38000000    75.82000000    79.80000000
   H     98.32000000    79.88000000    78.11000000
   H     95.92000000    78.26000000    77.47000000
   H     98.46000000    77.33000000    78.69000000
   H     97.94000000    76.97000000    77.06000000
   N     95.34000000    78.53000000    79.98000000
   C     94.90000000    78.92000000    81.30000000
   C     95.70000000    78.45000000    82.51000000
   O     95.75000000    79.13000000    83.53000000
   C     93.44000000    78.52000000    81.53000000
   C     93.24000000    77.01000000    81.50000000
   C     91.76000000    76.63000000    81.54000000
   C     91.67000000    75.11000000    81.49000000
   N     92.35000000    74.53000000    82.67000000
   H     94.90000000    77.77000000    79.48000000
   H     94.93000000    80.01000000    81.39000000
   H     92.84000000    79.08000000    80.81000000
   H     93.09000000    78.90000000    82.49000000
   H     93.69000000    76.62000000    82.42000000
   H     93.76000000    76.57000000    80.65000000
   H     91.16000000    77.17000000    80.81000000
   H     91.33000000    76.95000000    82.48000000
   H     92.13000000    74.74000000    80.58000000
   H     90.60000000    74.90000000    81.43000000
   H     92.13000000    73.55000000    82.80000000
   H     93.35000000    74.59000000    82.51000000
   H     92.09000000    74.86000000    83.58000000
   N     96.30000000    77.28000000    82.29000000
   C     97.11000000    76.54000000    83.23000000
   C     98.55000000    76.35000000    82.76000000
   O     99.50000000    76.50000000    83.52000000
   C     96.52000000    75.19000000    83.63000000
   C     96.17000000    74.30000000    82.44000000
   O     95.02000000    74.35000000    81.95000000
   O     97.10000000    73.72000000    81.84000000
   H     96.10000000    76.78000000    81.43000000
   H     97.04000000    77.17000000    84.12000000
   H     95.61000000    75.40000000    84.20000000
   H     97.32000000    74.64000000    84.12000000
   N     98.70000000    76.08000000    81.46000000
   C    100.01000000    75.77000000    80.91000000
   C    100.73000000    74.52000000    81.41000000
   O    101.90000000    74.36000000    81.11000000
   H     97.88000000    75.78000000    80.96000000
   H    100.61000000    76.64000000    81.15000000
   H     99.94000000    75.58000000    79.84000000
   N    100.01000000    73.58000000    82.02000000
   C    100.59000000    72.31000000    82.41000000
   C    101.26000000    71.57000000    81.27000000
   O    100.54000000    71.20000000    80.34000000
   C     99.52000000    71.45000000    83.07000000
   C     99.95000000    70.25000000    83.89000000
   N     99.45000000    70.16000000    85.13000000
   O    100.81000000    69.45000000    83.53000000
   H     99.01000000    73.68000000    81.93000000
   H    101.25000000    72.61000000    83.23000000
   H     98.71000000    71.19000000    82.39000000
   H     99.10000000    72.16000000    83.79000000
   H     99.01000000    70.98000000    85.53000000
   H     99.69000000    69.39000000    85.74000000
   N    102.58000000    71.37000000    81.38000000
   C    103.44000000    70.69000000    80.43000000
   C    103.01000000    69.27000000    80.08000000
   O    103.70000000    68.76000000    79.20000000
   H    103.01000000    71.70000000    82.23000000
   H    104.47000000    70.68000000    80.79000000
   H    103.48000000    71.34000000    79.56000000
   N    102.06000000    68.64000000    80.77000000
   C    101.75000000    67.23000000    80.69000000
   C    100.69000000    66.78000000    79.69000000
   O     99.51000000    67.07000000    79.83000000
   C    101.66000000    66.60000000    82.08000000
   C    101.81000000    65.10000000    82.12000000
   C    100.72000000    64.24000000    81.89000000
   C    103.12000000    64.62000000    82.26000000
   C    100.92000000    62.86000000    81.91000000
   C    103.31000000    63.24000000    82.41000000
   C    102.22000000    62.38000000    82.19000000
   O    102.36000000    61.05000000    82.43000000
   H    101.57000000    69.14000000    81.50000000
   H    102.66000000    66.70000000    80.38000000
   H    100.77000000    66.95000000    82.59000000
   H    102.54000000    66.95000000    82.62000000
   H     99.75000000    64.69000000    81.81000000
   H    103.94000000    65.33000000    82.27000000
   H    100.09000000    62.19000000    81.72000000
   H    104.26000000    62.82000000    82.69000000
   H    103.26000000    60.75000000    82.61000000
   N    101.16000000    66.03000000    78.69000000
   C    100.43000000    65.35000000    77.63000000
   C     99.60000000    64.17000000    78.12000000
   O     98.96000000    64.27000000    79.16000000
   C     99.64000000    66.32000000    76.77000000
   C     98.75000000    65.65000000    75.73000000
   C    100.58000000    67.34000000    76.12000000
   C     97.98000000    66.60000000    74.82000000
   H    102.14000000    65.82000000    78.70000000
   H    101.26000000    64.99000000    77.02000000
   H     98.92000000    66.75000000    77.47000000
   H     98.06000000    64.98000000    76.23000000
   H     99.38000000    64.98000000    75.14000000
   H    100.97000000    66.89000000    75.21000000
   H    100.03000000    68.22000000    75.81000000
   H    101.35000000    67.63000000    76.83000000
   H     97.11000000    66.03000000    74.49000000
   H     97.67000000    67.45000000    75.44000000
   H     98.64000000    66.87000000    74.00000000
   N     99.57000000    63.12000000    77.30000000
   C     98.75000000    61.96000000    77.60000000
   C     99.12000000    60.66000000    76.89000000
   O     98.50000000    59.65000000    77.19000000
   C     97.31000000    62.32000000    77.26000000
   O     97.19000000    62.54000000    75.88000000
   H    100.16000000    63.17000000    76.48000000
   H     98.81000000    61.84000000    78.68000000
   H     96.98000000    63.18000000    77.85000000
   H     96.69000000    61.49000000    77.60000000
   H     96.31000000    62.86000000    75.66000000
   N    100.04000000    60.69000000    75.93000000
   C    100.54000000    59.53000000    75.21000000
   C     99.48000000    58.45000000    75.01000000
   O     99.56000000    57.31000000    75.45000000
   C    101.80000000    59.05000000    75.91000000
   H    100.38000000    61.61000000    75.69000000
   H    100.84000000    59.94000000    74.25000000
   H    102.27000000    58.27000000    75.31000000
   H    102.43000000    59.94000000    75.96000000
   H    101.54000000    58.77000000    76.93000000
   N     98.38000000    58.65000000    74.28000000
   C     97.98000000    59.84000000    73.55000000
   C     98.42000000    59.81000000    72.09000000
   O     98.24000000    58.85000000    71.35000000
   C     96.47000000    60.02000000    73.63000000
   H     97.86000000    57.79000000    74.21000000
   H     98.30000000    60.72000000    74.11000000
   H     95.88000000    59.38000000    72.96000000
   H     96.21000000    59.76000000    74.65000000
   H     96.10000000    61.02000000    73.40000000
   N     99.19000000    60.80000000    71.65000000
   C     99.62000000    62.09000000    72.15000000
   C    101.13000000    62.22000000    71.96000000
   O    101.82000000    62.86000000    72.75000000
   C     98.85000000    63.15000000    71.38000000
   C     98.89000000    64.58000000    71.92000000
   C     98.42000000    65.54000000    70.84000000
   O     99.31000000    66.01000000    70.09000000
   O     97.22000000    65.83000000    70.67000000
   H     99.49000000    60.59000000    70.70000000
   H     99.40000000    62.24000000    73.21000000
   H     97.81000000    62.83000000    71.28000000
   H     99.19000000    63.21000000    70.34000000
   H     99.93000000    64.87000000    72.11000000
   H     98.30000000    64.72000000    72.82000000
   N    101.69000000    61.62000000    70.91000000
   C    103.10000000    61.49000000    70.60000000
   H    103.67800000    61.51000000    71.52400000
   H    103.27400000    60.54600000    70.08400000
   H    103.41000000    62.31700000    69.96100000
   H    101.06000000    61.20000000    70.24000000
  Ca     95.94000000    73.24000000    79.55000000
   O     93.75000000    74.79000000    78.49000000
   H     93.72000000    75.72000000    78.25000000
   H     92.93000000    74.43000000    78.17000000
   O     96.76000000    70.43000000    80.01000000
   H     96.74000000    69.65000000    79.45000000
   H     96.68000000    70.09000000    80.90000000
   O     93.72000000    71.76000000    80.20000000
   H     93.89000000    71.40000000    81.07000000
   H     92.84000000    71.46000000    79.98000000
   O     95.55000000    71.54000000    77.21000000
   H     94.67000000    71.39000000    76.85000000
   H     96.12000000    70.99000000    76.67000000
   O     98.47000000    72.59000000    78.74000000
   H     98.41000000    72.31000000    77.83000000
   H     99.04000000    71.94000000    79.16000000

Ca 1.00



