%chk=loop2.holoCaM-CaMKII.run75.water2.chk
%nprocshared=20
%mem=10GB
%nosave
#b3lyp/svp scf=(tight,noincore,xqc) Test 
#IOP(5/87=12) Density=Current Pop=(MK,readradii) iop(6/33=2) iop(6/42=6)

loop2.holoCaM-CaMKII.run75.water2 

   -2  1 
   C      6.80000000    58.46000000   108.53500000
   C      6.61000000    59.89000000   108.06500000
   O      7.55000000    60.69000000   108.01500000
   H      7.66200000    58.40800000   109.20000000
   H      5.90900000    58.13100000   109.07000000
   H      6.96700000    57.81300000   107.67400000
   N      5.54000000    60.30000000   107.38500000
   C      5.44000000    61.51000000   106.59500000
   C      5.48000000    62.80000000   107.41500000
   O      4.82000000    62.90000000   108.44500000
   C      4.24000000    61.41000000   105.65500000
   C      4.13000000    62.46000000   104.56500000
   O      5.22000000    62.96000000   104.21500000
   O      3.08000000    62.99000000   104.12500000
   H      4.70000000    59.75000000   107.45500000
   H      6.36000000    61.48000000   106.01500000
   H      3.33000000    61.29000000   106.25500000
   H      4.35000000    60.45000000   105.14500000
   N      6.23000000    63.79000000   106.94500000
   C      6.43000000    65.13000000   107.47500000
   C      5.82000000    66.34000000   106.78500000
   O      5.52000000    67.41000000   107.32500000
   C      7.95000000    65.24000000   107.42500000
   H      6.73000000    63.51000000   106.10500000
   H      6.17000000    65.14000000   108.52500000
   H      8.37000000    64.41000000   107.99500000
   H      8.25000000    65.16000000   106.38500000
   H      8.37000000    66.17000000   107.82500000
   N      5.61000000    66.16000000   105.48500000
   C      5.34000000    67.20000000   104.51500000
   C      4.32000000    66.92000000   103.42500000
   O      3.87000000    67.90000000   102.83500000
   C      6.65000000    67.60000000   103.84500000
   C      7.47000000    66.44000000   103.31500000
   O      6.94000000    65.41000000   102.84500000
   O      8.72000000    66.56000000   103.30500000
   H      5.75000000    65.21000000   105.16500000
   H      4.93000000    68.05000000   105.05500000
   H      7.19000000    68.10000000   104.64500000
   H      6.52000000    68.42000000   103.13500000
   N      3.80000000    65.71000000   103.22500000
   C      2.68000000    65.59000000   102.31500000
   C      3.00000000    65.72000000   100.83500000
   O      2.16000000    66.20000000   100.07500000
   H      4.04000000    64.88000000   103.74500000
   H      1.89000000    66.30000000   102.56500000
   H      2.22000000    64.60000000   102.40500000
   N      4.23000000    65.43000000   100.39500000
   C      4.65000000    65.54000000    99.01500000
   C      4.29000000    64.33000000    98.16500000
   O      4.44000000    64.40000000    96.94500000
   C      6.14000000    65.83000000    99.07500000
   C      7.08000000    64.68000000    99.43500000
   N      8.33000000    64.71000000    98.97500000
   O      6.71000000    63.78000000   100.16500000
   H      4.99000000    65.11000000   100.97500000
   H      4.25000000    66.41000000    98.49500000
   H      6.38000000    66.71000000    99.67500000
   H      6.46000000    66.16000000    98.08500000
   H      8.56000000    65.51000000    98.40500000
   H      9.00000000    64.16000000    99.49500000
   N      3.79000000    63.21000000    98.69500000
   C      3.35000000    62.05000000    97.94500000
   C      4.27000000    60.85000000    98.04500000
   O      3.96000000    59.73000000    97.64500000
   H      3.67000000    63.11000000    99.68500000
   H      3.20000000    62.26000000    96.88500000
   H      2.40000000    61.73000000    98.39500000
   N      5.45000000    61.03000000    98.63500000
   C      6.58000000    60.13000000    98.61500000
   C      7.41000000    60.06000000    99.89500000
   O      7.22000000    60.98000000   100.68500000
   C      7.53000000    60.37000000    97.44500000
   C      6.97000000    60.12000000    96.04500000
   O      7.94000000    61.72000000    97.43500000
   H      5.50000000    62.01000000    98.89500000
   H      6.17000000    59.13000000    98.44500000
   H      8.34000000    59.65000000    97.51500000
   H      8.32000000    61.90000000    98.29500000
   H      5.92000000    59.91000000    96.21500000
   H      7.10000000    60.95000000    95.34500000
   H      7.39000000    59.19000000    95.67500000
   N      8.27000000    59.05000000   100.07500000
   C      9.26000000    59.00000000   101.12500000
   C     10.45000000    59.84000000   100.69500000
   O     10.86000000    59.73000000    99.53500000
   C      9.68000000    57.58000000   101.46500000
   C      8.57000000    56.83000000   102.19500000
   C     10.90000000    57.51000000   102.38500000
   C      8.67000000    55.32000000   102.05500000
   H      8.31000000    58.39000000    99.31500000
   H      8.84000000    59.49000000   102.00500000
   H      9.96000000    57.14000000   100.49500000
   H      7.66000000    57.15000000   101.69500000
   H      8.57000000    57.10000000   103.24500000
   H     11.87000000    57.74000000   101.95500000
   H     10.82000000    58.24000000   103.19500000
   H     11.04000000    56.56000000   102.89500000
   H      7.87000000    54.77000000   102.55500000
   H      8.70000000    55.06000000   100.99500000
   H      9.60000000    54.97000000   102.51500000
   N     10.98000000    60.59000000   101.66500000
   C     12.21000000    61.34000000   101.63500000
   C     13.34000000    60.82000000   102.51500000
   O     13.04000000    60.03000000   103.40500000
   C     11.94000000    62.83000000   101.81500000
   C     10.76000000    63.46000000   101.08500000
   O      9.60000000    63.11000000   101.37500000
   O     10.89000000    64.35000000   100.21500000
   H     10.44000000    60.66000000   102.52500000
   H     12.66000000    61.28000000   100.64500000
   H     12.82000000    63.43000000   101.58500000
   H     11.71000000    62.95000000   102.87500000
   N     14.58000000    61.29000000   102.34500000
   C     15.77000000    60.78000000   102.99500000
   C     15.74000000    60.79000000   104.51500000
   O     16.09000000    59.76000000   105.09500000
   C     17.00000000    61.38000000   102.33500000
   C     18.24000000    60.56000000   102.61500000
   C     19.27000000    61.02000000   103.43500000
   C     18.46000000    59.31000000   102.00500000
   C     20.46000000    60.33000000   103.72500000
   C     19.66000000    58.62000000   102.19500000
   C     20.66000000    59.13000000   103.04500000
   H     14.71000000    61.85000000   101.51500000
   H     15.93000000    59.75000000   102.67500000
   H     17.23000000    62.38000000   102.69500000
   H     16.86000000    61.54000000   101.26500000
   H     19.16000000    61.97000000   103.93500000
   H     17.71000000    58.91000000   101.33500000
   H     21.27000000    60.73000000   104.32500000
   H     19.78000000    57.74000000   101.58500000
   H     21.60000000    58.63000000   103.21500000
   N     15.23000000    61.83000000   105.17500000
   C     15.11000000    61.78000000   106.61500000
   C     13.98000000    60.85000000   107.02500000
   O     14.05000000    60.21000000   108.07500000
   C     14.89000000    63.23000000   107.03500000
   C     14.30000000    63.92000000   105.80500000
   C     14.99000000    63.17000000   104.66500000
   H     16.04000000    61.52000000   107.12500000
   H     14.23000000    63.31000000   107.89500000
   H     15.90000000    63.60000000   107.21500000
   H     13.25000000    63.62000000   105.74500000
   H     14.54000000    64.98000000   105.83500000
   H     14.48000000    63.20000000   103.70500000
   H     15.87000000    63.77000000   104.43500000
   N     12.88000000    60.70000000   106.27500000
   C     11.77000000    59.79000000   106.49500000
   C     12.20000000    58.34000000   106.32500000
   O     11.72000000    57.47000000   107.05500000
   C     10.60000000    60.21000000   105.61500000
   C     10.13000000    61.64000000   105.87500000
   C      9.08000000    61.99000000   104.82500000
   O      8.51000000    63.10000000   104.78500000
   O      8.68000000    61.20000000   103.94500000
   H     12.86000000    61.24000000   105.43500000
   H     11.49000000    59.86000000   107.54500000
   H      9.73000000    59.56000000   105.69500000
   H     10.95000000    60.15000000   104.57500000
   H     10.97000000    62.33000000   105.83500000
   H      9.77000000    61.65000000   106.90500000
   N     13.17000000    58.11000000   105.44500000
   C     13.68000000    56.77000000   105.19500000
   H     14.65400000    56.65800000   105.67200000
   H     12.98800000    56.03500000   105.60500000
   H     13.78200000    56.61400000   104.12100000
   H     13.37000000    58.91000000   104.85500000
  Ca      7.13000000    62.81000000   102.44500000
   O      6.44000000    60.11000000   103.41500000
   H      7.36000000    60.22000000   103.62500000
   H      6.21000000    59.24000000   103.75500000
   O      4.26000000    62.68000000   101.62500000
   H      3.61000000    62.01000000   101.41500000
   H      4.00000000    63.01000000   102.48500000

Ca 1.00



