%chk=loop2.apoCaM-CA-Ng.Init293.run7.water5.chk
%nprocshared=20
%mem=10GB
%nosave
#b3lyp/svp scf=(tight,noincore,xqc) Test 
#IOP(5/87=12) Density=Current Pop=(MK,readradii) iop(6/33=2) iop(6/42=6)

loop2.apoCaM-CA-Ng.Init293.run7.water5 

   -2  1 
   C     53.69000000    20.52000000    33.16000000
   C     53.26000000    19.34000000    32.30000000
   O     52.20000000    18.79000000    32.59000000
   H     54.58600000    20.97200000    32.73400000
   H     52.89000000    21.25900000    33.19000000
   H     53.90400000    20.17400000    34.17100000
   N     54.07000000    18.93000000    31.33000000
   C     53.94000000    17.78000000    30.46000000
   C     54.46000000    16.49000000    31.09000000
   O     53.79000000    15.47000000    30.89000000
   C     54.69000000    18.11000000    29.17000000
   C     54.74000000    16.98000000    28.15000000
   O     53.72000000    16.66000000    27.50000000
   O     55.70000000    16.21000000    28.33000000
   H     54.76000000    19.65000000    31.14000000
   H     52.87000000    17.60000000    30.33000000
   H     55.71000000    18.41000000    29.39000000
   H     54.19000000    18.98000000    28.73000000
   N     55.58000000    16.55000000    31.81000000
   C     56.12000000    15.43000000    32.57000000
   C     55.12000000    14.54000000    33.30000000
   O     55.36000000    13.39000000    33.63000000
   C     57.03000000    14.66000000    31.63000000
   H     56.04000000    17.43000000    31.65000000
   H     56.72000000    15.80000000    33.40000000
   H     56.39000000    14.24000000    30.85000000
   H     57.63000000    15.37000000    31.05000000
   H     57.61000000    13.90000000    32.15000000
   N     54.04000000    15.21000000    33.70000000
   C     52.96000000    14.57000000    34.42000000
   C     52.36000000    13.29000000    33.84000000
   O     51.93000000    12.39000000    34.55000000
   C     53.33000000    14.61000000    35.90000000
   C     53.57000000    15.97000000    36.54000000
   O     54.03000000    16.07000000    37.70000000
   O     53.06000000    16.98000000    36.02000000
   H     54.04000000    16.22000000    33.61000000
   H     52.07000000    15.20000000    34.45000000
   H     54.14000000    13.93000000    36.17000000
   H     52.47000000    14.30000000    36.50000000
   N     52.39000000    13.24000000    32.50000000
   C     51.90000000    12.21000000    31.61000000
   C     50.39000000    12.16000000    31.42000000
   O     49.83000000    12.98000000    30.69000000
   H     52.82000000    14.06000000    32.10000000
   H     52.18000000    11.23000000    31.99000000
   H     52.41000000    12.42000000    30.67000000
   N     49.70000000    11.19000000    32.03000000
   C     48.26000000    11.03000000    31.94000000
   C     47.55000000    12.27000000    32.47000000
   O     47.62000000    12.57000000    33.66000000
   C     47.84000000     9.70000000    32.56000000
   C     46.43000000     9.28000000    32.19000000
   N     46.18000000     7.97000000    32.21000000
   O     45.62000000    10.07000000    31.71000000
   H     50.21000000    10.46000000    32.50000000
   H     48.12000000    11.01000000    30.86000000
   H     48.10000000     9.60000000    33.61000000
   H     48.40000000     8.90000000    32.08000000
   H     46.85000000     7.28000000    32.54000000
   H     45.24000000     7.70000000    31.98000000
   N     46.70000000    12.96000000    31.71000000
   C     45.88000000    14.03000000    32.25000000
   C     46.50000000    15.36000000    31.84000000
   O     46.47000000    15.62000000    30.64000000
   H     46.58000000    12.68000000    30.75000000
   H     45.91000000    14.08000000    33.34000000
   H     44.84000000    14.00000000    31.92000000
   N     47.10000000    16.09000000    32.79000000
   C     47.83000000    17.33000000    32.64000000
   C     47.57000000    18.29000000    33.79000000
   O     47.36000000    17.85000000    34.92000000
   C     49.35000000    17.19000000    32.62000000
   C     49.83000000    15.92000000    31.92000000
   O     49.78000000    18.28000000    31.83000000
   H     47.21000000    15.66000000    33.70000000
   H     47.44000000    17.86000000    31.78000000
   H     49.88000000    17.19000000    33.57000000
   H     50.71000000    18.38000000    32.07000000
   H     50.92000000    15.90000000    31.98000000
   H     49.49000000    14.97000000    32.32000000
   H     49.54000000    15.84000000    30.87000000
   N     47.65000000    19.60000000    33.56000000
   C     47.50000000    20.68000000    34.51000000
   C     48.67000000    20.57000000    35.48000000
   O     49.80000000    20.29000000    35.08000000
   C     47.54000000    22.02000000    33.79000000
   C     46.60000000    23.00000000    34.50000000
   C     48.89000000    22.52000000    33.29000000
   C     46.29000000    24.24000000    33.67000000
   H     47.72000000    19.95000000    32.61000000
   H     46.60000000    20.54000000    35.12000000
   H     47.07000000    21.78000000    32.83000000
   H     47.17000000    23.32000000    35.37000000
   H     45.67000000    22.55000000    34.82000000
   H     49.41000000    21.67000000    32.85000000
   H     48.78000000    23.35000000    32.59000000
   H     49.43000000    22.84000000    34.17000000
   H     47.21000000    24.81000000    33.52000000
   H     45.98000000    23.88000000    32.69000000
   H     45.53000000    24.82000000    34.18000000
   N     48.46000000    20.73000000    36.79000000
   C     49.40000000    20.43000000    37.85000000
   C     48.75000000    19.92000000    39.13000000
   O     48.92000000    20.54000000    40.18000000
   C     50.17000000    21.72000000    38.12000000
   C     51.45000000    21.55000000    38.92000000
   O     52.01000000    20.43000000    38.84000000
   O     51.80000000    22.41000000    39.75000000
   H     47.49000000    20.84000000    37.02000000
   H     50.05000000    19.62000000    37.50000000
   H     49.56000000    22.44000000    38.67000000
   H     50.56000000    22.20000000    37.22000000
   N     48.15000000    18.73000000    39.13000000
   C     47.88000000    17.90000000    40.29000000
   C     46.71000000    18.33000000    41.16000000
   O     46.86000000    18.24000000    42.38000000
   C     47.76000000    16.44000000    39.85000000
   C     47.32000000    15.48000000    40.93000000
   C     48.06000000    15.28000000    42.10000000
   C     46.13000000    14.78000000    40.67000000
   C     47.54000000    14.52000000    43.15000000
   C     45.74000000    13.87000000    41.65000000
   C     46.42000000    13.73000000    42.87000000
   H     48.25000000    18.26000000    38.24000000
   H     48.77000000    17.97000000    40.91000000
   H     48.68000000    16.06000000    39.41000000
   H     47.01000000    16.28000000    39.08000000
   H     48.99000000    15.81000000    42.26000000
   H     45.56000000    14.93000000    39.76000000
   H     48.10000000    14.46000000    44.07000000
   H     44.86000000    13.27000000    41.43000000
   H     45.99000000    13.04000000    43.59000000
   N     45.54000000    18.75000000    40.68000000
   C     45.19000000    18.92000000    39.28000000
   C     45.42000000    20.31000000    38.71000000
   O     45.65000000    20.45000000    37.50000000
   C     43.70000000    18.60000000    39.26000000
   C     43.14000000    19.00000000    40.62000000
   C     44.35000000    18.73000000    41.51000000
   H     45.78000000    18.25000000    38.65000000
   H     43.22000000    19.18000000    38.48000000
   H     43.58000000    17.52000000    39.11000000
   H     42.92000000    20.07000000    40.60000000
   H     42.22000000    18.45000000    40.81000000
   H     44.28000000    19.55000000    42.23000000
   H     44.28000000    17.83000000    42.12000000
   N     45.33000000    21.32000000    39.57000000
   C     45.16000000    22.74000000    39.31000000
   C     46.44000000    23.56000000    39.46000000
   O     47.35000000    23.25000000    40.22000000
   C     44.12000000    23.27000000    40.29000000
   C     42.73000000    22.93000000    39.74000000
   C     41.55000000    23.52000000    40.50000000
   O     41.74000000    24.05000000    41.61000000
   O     40.39000000    23.43000000    40.03000000
   H     45.28000000    21.04000000    40.54000000
   H     44.83000000    22.84000000    38.28000000
   H     44.23000000    24.35000000    40.34000000
   H     44.19000000    22.89000000    41.31000000
   H     42.61000000    21.85000000    39.68000000
   H     42.64000000    23.36000000    38.75000000
   N     46.44000000    24.65000000    38.70000000
   C     47.62000000    25.46000000    38.43000000
   H     48.44600000    24.81100000    38.13900000
   H     47.40500000    26.15800000    37.62100000
   H     47.89300000    26.01600000    39.32700000
   H     45.62000000    24.83000000    38.14000000
  Ca     53.57000000    18.59000000    38.09000000
   O     51.09000000    17.34000000    38.48000000
   H     50.51000000    17.23000000    37.72000000
   H     50.69000000    16.81000000    39.16000000
   O     56.13000000    17.78000000    38.66000000
   H     56.44000000    16.88000000    38.59000000
   H     56.82000000    18.22000000    39.16000000
   O     52.03000000    19.34000000    36.09000000
   H     52.01000000    18.44000000    35.78000000
   H     51.22000000    19.73000000    35.76000000
   O     53.64000000    18.06000000    40.80000000
   H     54.49000000    18.37000000    41.12000000
   H     53.38000000    17.39000000    41.42000000
   O     55.32000000    19.99000000    36.42000000
   H     55.95000000    19.63000000    35.80000000
   H     55.60000000    20.90000000    36.56000000

Ca 1.00



