%chk=loop1.apoCaM-CA-Ng.Init293.run73.water5.chk
%nprocshared=20
%mem=10GB
%nosave
#b3lyp/svp scf=(tight,noincore,xqc) Test 
#IOP(5/87=12) Density=Current Pop=(MK,readradii) iop(6/33=2) iop(6/42=6)

loop1.apoCaM-CA-Ng.Init293.run73.water5 

   0  1 
   C     97.95000000    97.07000000    50.40000000
   C     99.44000000    97.37000000    50.32000000
   O     99.86000000    97.58000000    49.18000000
   H     97.40800000    97.74500000    49.73800000
   H     97.76900000    96.03900000    50.09500000
   H     97.60500000    97.21200000    51.42400000
   N    100.16000000    97.41000000    51.44000000
   C    101.59000000    97.66000000    51.49000000
   C    102.45000000    96.42000000    51.26000000
   O    103.68000000    96.42000000    51.34000000
   C    101.91000000    98.18000000    52.89000000
   C    101.67000000    97.18000000    54.01000000
   O    102.65000000    96.86000000    54.71000000
   O    100.49000000    96.79000000    54.20000000
   H     99.68000000    97.05000000    52.25000000
   H    101.77000000    98.41000000    50.72000000
   H    101.20000000    98.96000000    53.16000000
   H    102.87000000    98.70000000    52.93000000
   N    101.87000000    95.30000000    50.84000000
   C    102.52000000    94.01000000    50.79000000
   C    102.86000000    93.75000000    49.33000000
   O    101.97000000    93.55000000    48.50000000
   C    101.69000000    92.91000000    51.45000000
   C    101.23000000    93.21000000    52.88000000
   C    102.35000000    93.50000000    53.88000000
   C    101.90000000    93.38000000    55.33000000
   N    101.06000000    94.53000000    55.72000000
   H    100.88000000    95.37000000    50.63000000
   H    103.45000000    94.04000000    51.37000000
   H    102.12000000    91.91000000    51.38000000
   H    100.73000000    92.77000000    50.95000000
   H    100.56000000    92.40000000    53.16000000
   H    100.56000000    94.07000000    52.87000000
   H    102.65000000    94.53000000    53.75000000
   H    103.24000000    92.92000000    53.65000000
   H    102.78000000    93.41000000    55.96000000
   H    101.43000000    92.40000000    55.45000000
   H    101.45000000    95.43000000    55.46000000
   H    100.14000000    94.53000000    55.31000000
   H    101.01000000    94.38000000    56.71000000
   N    104.10000000    93.80000000    48.84000000
   C    105.35000000    94.02000000    49.54000000
   C    106.41000000    94.53000000    48.57000000
   O    107.09000000    93.82000000    47.83000000
   C    105.90000000    92.74000000    50.18000000
   C    107.04000000    92.91000000    51.17000000
   O    107.57000000    91.87000000    51.63000000
   O    107.41000000    94.06000000    51.49000000
   H    104.15000000    93.85000000    47.84000000
   H    105.40000000    94.72000000    50.37000000
   H    106.18000000    92.04000000    49.39000000
   H    105.02000000    92.42000000    50.72000000
   N    106.62000000    95.85000000    48.52000000
   C    105.70000000    96.89000000    48.97000000
   C    105.96000000    98.20000000    48.25000000
   O    107.09000000    98.70000000    48.26000000
   H    107.41000000    96.25000000    48.06000000
   H    105.88000000    97.01000000    50.04000000
   H    104.69000000    96.57000000    48.72000000
   N    104.96000000    98.87000000    47.68000000
   C    103.53000000    98.60000000    47.69000000
   C    102.77000000    99.91000000    47.81000000
   O    103.17000000   100.98000000    47.35000000
   C    103.15000000    97.90000000    46.39000000
   C    103.72000000    96.50000000    46.24000000
   O    102.95000000    95.59000000    46.62000000
   O    104.87000000    96.36000000    45.75000000
   H    105.14000000    99.85000000    47.49000000
   H    103.19000000    98.04000000    48.55000000
   H    103.62000000    98.50000000    45.61000000
   H    102.07000000    97.90000000    46.27000000
   N    101.60000000    99.86000000    48.45000000
   C    100.69000000   100.97000000    48.66000000
   C     99.75000000   101.27000000    47.49000000
   O     99.44000000   102.42000000    47.18000000
   H    101.28000000    99.01000000    48.89000000
   H    101.19000000   101.93000000    48.66000000
   H    100.10000000   100.84000000    49.56000000
   N     99.40000000   100.23000000    46.74000000
   C     98.70000000   100.21000000    45.47000000
   C     98.32000000    98.80000000    45.06000000
   O     98.96000000    97.83000000    45.47000000
   C     99.35000000   100.93000000    44.29000000
   C    100.80000000   100.50000000    44.09000000
   O     99.26000000   102.33000000    44.48000000
   H     99.76000000    99.34000000    47.05000000
   H     97.74000000   100.71000000    45.64000000
   H     98.82000000   100.61000000    43.40000000
   H     99.28000000   102.45000000    45.43000000
   H    100.78000000    99.46000000    43.75000000
   H    101.21000000   101.06000000    43.25000000
   H    101.41000000   100.54000000    44.99000000
   N     97.24000000    98.66000000    44.29000000
   C     96.71000000    97.37000000    43.89000000
   C     96.17000000    97.32000000    42.47000000
   O     95.38000000    98.13000000    42.00000000
   C     95.66000000    96.96000000    44.93000000
   C     95.35000000    95.47000000    44.81000000
   C     94.38000000    97.78000000    44.92000000
   C     96.53000000    94.56000000    45.10000000
   H     96.94000000    99.51000000    43.83000000
   H     97.54000000    96.67000000    43.98000000
   H     96.17000000    97.11000000    45.88000000
   H     94.92000000    95.14000000    43.86000000
   H     94.61000000    95.26000000    45.59000000
   H     93.97000000    97.95000000    45.92000000
   H     94.59000000    98.77000000    44.51000000
   H     93.68000000    97.36000000    44.19000000
   H     97.22000000    94.47000000    44.26000000
   H     97.07000000    94.86000000    46.00000000
   H     96.16000000    93.55000000    45.31000000
   N     96.63000000    96.30000000    41.75000000
   C     96.29000000    96.05000000    40.36000000
   C     95.78000000    94.64000000    40.08000000
   O     95.14000000    94.48000000    39.04000000
   C     97.40000000    96.43000000    39.38000000
   C     98.65000000    95.57000000    39.57000000
   O     97.71000000    97.78000000    39.64000000
   H     97.41000000    95.75000000    42.08000000
   H     95.52000000    96.78000000    40.11000000
   H     97.12000000    96.34000000    38.33000000
   H     97.01000000    98.42000000    39.54000000
   H     98.40000000    94.59000000    39.17000000
   H     99.49000000    95.97000000    39.00000000
   H     98.93000000    95.48000000    40.62000000
   N     95.85000000    93.68000000    41.01000000
   C     95.44000000    92.30000000    40.90000000
   C     96.21000000    91.52000000    39.84000000
   O     96.59000000    92.04000000    38.79000000
   C     93.93000000    92.07000000    40.89000000
   C     93.22000000    92.92000000    41.95000000
   O     93.53000000    90.73000000    41.03000000
   H     96.33000000    93.99000000    41.84000000
   H     95.70000000    91.82000000    41.84000000
   H     93.60000000    92.47000000    39.94000000
   H     92.61000000    90.75000000    41.31000000
   H     93.02000000    93.94000000    41.62000000
   H     92.23000000    92.49000000    42.12000000
   H     93.80000000    92.88000000    42.87000000
   N     96.49000000    90.25000000    40.18000000
   C     97.40000000    89.34000000    39.52000000
   C     98.44000000    88.52000000    40.29000000
   O     99.35000000    88.04000000    39.63000000
   C     96.54000000    88.40000000    38.69000000
   C     95.67000000    89.00000000    37.59000000
   C     96.40000000    89.74000000    36.48000000
   C     95.61000000    89.87000000    35.18000000
   N     94.40000000    90.69000000    35.32000000
   H     95.87000000    89.97000000    40.92000000
   H     97.95000000    89.96000000    38.82000000
   H     95.79000000    87.89000000    39.31000000
   H     97.18000000    87.71000000    38.14000000
   H     94.90000000    89.65000000    38.02000000
   H     95.21000000    88.11000000    37.16000000
   H     97.26000000    89.12000000    36.25000000
   H     96.83000000    90.67000000    36.83000000
   H     95.38000000    88.87000000    34.81000000
   H     96.16000000    90.37000000    34.38000000
   H     93.80000000    90.18000000    35.95000000
   H     94.67000000    91.56000000    35.76000000
   H     93.84000000    90.78000000    34.48000000
   N     98.48000000    88.31000000    41.61000000
   C     97.69000000    88.88000000    42.68000000
   C     96.19000000    88.59000000    42.67000000
   O     95.38000000    89.42000000    43.07000000
   C     98.16000000    90.29000000    43.04000000
   C     99.56000000    90.18000000    43.64000000
   C    100.24000000    91.47000000    44.07000000
   O    101.47000000    91.43000000    44.27000000
   O     99.59000000    92.52000000    44.23000000
   H     99.28000000    87.77000000    41.90000000
   H     97.96000000    88.29000000    43.56000000
   H     97.47000000    90.61000000    43.82000000
   H     98.10000000    90.96000000    42.18000000
   H    100.20000000    89.64000000    42.94000000
   H     99.52000000    89.57000000    44.55000000
   N     95.85000000    87.40000000    42.16000000
   C     94.45000000    87.03000000    42.05000000
   H     93.87000000    87.89500000    41.72900000
   H     94.34200000    86.22900000    41.31900000
   H     94.08600000    86.68900000    43.01900000
   H     96.60000000    86.76000000    41.97000000
  Ca    101.30500000    93.71000000    45.82000000
   O     99.65000000    95.04000000    47.38000000
   H     99.49000000    95.98000000    47.31000000
   H     99.38000000    94.82000000    48.28000000
   O    100.24500000    91.71000000    47.18000000
   H    100.51500000    91.68000000    48.09000000
   H     99.43500000    91.20000000    47.15000000
   O    103.62500000    92.58000000    45.84000000
   H    104.30500000    93.23000000    45.62000000
   H    104.08500000    91.94000000    46.39000000
   O    102.58500000    94.18000000    43.54000000
   H    102.70500000    94.70000000    42.74000000
   H    102.83500000    93.29000000    43.28000000
   O    100.65500000    96.02000000    44.54000000
   H    100.10500000    96.77000000    44.79000000
   H    100.85500000    96.18000000    43.61000000

Ca 1.00



