%chk=loop4.apoCaM-CA-Ng.Init293.run81.water3.chk
%nprocshared=20
%mem=10GB
%nosave
#b3lyp/svp scf=(tight,noincore,xqc) Test 
#IOP(5/87=12) Density=Current Pop=(MK,readradii) iop(6/33=2) iop(6/42=6)

loop4.apoCaM-CA-Ng.Init293.run81.water3 

   -3  1 
   C     55.84000000    88.68000000    70.16000000
   C     54.67000000    88.71000000    71.12000000
   O     53.48000000    88.60000000    70.82000000
   H     56.71500000    88.27500000    70.66800000
   H     55.59300000    88.05100000    69.30500000
   H     56.05500000    89.69200000    69.81700000
   N     55.06000000    88.82000000    72.39000000
   C     54.28000000    88.73000000    73.61000000
   C     53.12000000    87.75000000    73.69000000
   O     52.47000000    87.80000000    74.73000000
   C     53.93000000    90.13000000    74.13000000
   C     53.20000000    91.06000000    73.16000000
   O     52.42000000    90.60000000    72.30000000
   O     53.51000000    92.26000000    73.25000000
   H     56.06000000    88.92000000    72.48000000
   H     55.08000000    88.44000000    74.28000000
   H     54.84000000    90.61000000    74.46000000
   H     53.33000000    90.08000000    75.04000000
   N     52.89000000    86.86000000    72.72000000
   C     51.82000000    85.88000000    72.72000000
   C     50.48000000    86.59000000    72.59000000
   O     50.40000000    87.68000000    72.04000000
   C     52.00000000    84.71000000    71.75000000
   C     53.33000000    83.98000000    71.93000000
   C     51.81000000    85.05000000    70.28000000
   C     53.32000000    82.53000000    71.44000000
   H     53.50000000    86.84000000    71.92000000
   H     51.87000000    85.48000000    73.74000000
   H     51.18000000    84.03000000    71.95000000
   H     53.57000000    83.98000000    72.99000000
   H     54.07000000    84.53000000    71.35000000
   H     52.52000000    85.84000000    70.07000000
   H     51.85000000    84.12000000    69.70000000
   H     50.78000000    85.41000000    70.19000000
   H     54.27000000    82.08000000    71.74000000
   H     52.44000000    82.05000000    71.86000000
   H     53.41000000    82.56000000    70.36000000
   N     49.41000000    86.08000000    73.21000000
   C     48.13000000    86.76000000    73.20000000
   C     48.12000000    88.05000000    74.02000000
   O     48.69000000    88.10000000    75.11000000
   C     47.06000000    85.83000000    73.75000000
   C     45.66000000    86.43000000    73.74000000
   O     44.88000000    86.07000000    72.84000000
   O     45.23000000    87.14000000    74.68000000
   H     49.52000000    85.28000000    73.81000000
   H     47.78000000    87.01000000    72.20000000
   H     47.25000000    85.57000000    74.79000000
   H     47.17000000    85.06000000    73.00000000
   N     47.41000000    89.07000000    73.53000000
   C     46.69000000    89.36000000    72.31000000
   C     47.40000000    89.42000000    70.96000000
   O     48.58000000    89.72000000    70.87000000
   H     47.51000000    89.87000000    74.14000000
   H     46.38000000    90.38000000    72.51000000
   H     45.80000000    88.74000000    72.21000000
   N     46.81000000    88.98000000    69.85000000
   C     45.46000000    88.52000000    69.58000000
   C     45.41000000    87.69000000    68.30000000
   O     45.36000000    88.28000000    67.22000000
   C     44.44000000    89.65000000    69.61000000
   C     42.96000000    89.32000000    69.46000000
   O     42.54000000    88.16000000    69.71000000
   O     42.19000000    90.22000000    69.07000000
   H     47.37000000    89.11000000    69.01000000
   H     45.23000000    87.83000000    70.39000000
   H     44.71000000    90.39000000    68.86000000
   H     44.56000000    90.21000000    70.54000000
   N     45.52000000    86.36000000    68.32000000
   C     45.42000000    85.56000000    69.53000000
   C     45.50000000    84.05000000    69.35000000
   O     45.23000000    83.31000000    70.29000000
   H     45.71000000    85.91000000    67.44000000
   H     44.48000000    85.87000000    69.98000000
   H     46.23000000    85.84000000    70.20000000
   N     45.57000000    83.53000000    68.12000000
   C     45.15000000    82.17000000    67.84000000
   C     46.32000000    81.24000000    67.56000000
   O     46.06000000    80.04000000    67.50000000
   C     44.29000000    82.11000000    66.58000000
   C     42.98000000    82.89000000    66.74000000
   C     42.19000000    82.88000000    65.44000000
   N     42.72000000    83.54000000    64.41000000
   O     41.24000000    82.13000000    65.22000000
   H     45.77000000    84.11000000    67.32000000
   H     44.51000000    81.75000000    68.61000000
   H     44.19000000    81.05000000    66.35000000
   H     44.84000000    82.60000000    65.78000000
   H     43.23000000    83.91000000    67.02000000
   H     42.31000000    82.48000000    67.49000000
   H     43.39000000    84.23000000    64.71000000
   H     42.13000000    83.71000000    63.61000000
   N     47.57000000    81.70000000    67.61000000
   C     48.86000000    81.10000000    67.32000000
   C     49.76000000    82.16000000    66.69000000
   O     49.74000000    83.36000000    66.95000000
   C     49.51000000    80.42000000    68.52000000
   C     48.51000000    79.59000000    69.32000000
   C     50.23000000    81.36000000    69.47000000
   H     47.64000000    82.69000000    67.80000000
   H     48.71000000    80.34000000    66.56000000
   H     50.22000000    79.69000000    68.16000000
   H     48.95000000    79.11000000    70.20000000
   H     47.80000000    80.32000000    69.72000000
   H     47.98000000    78.81000000    68.78000000
   H     51.03000000    81.91000000    68.97000000
   H     49.52000000    82.05000000    69.93000000
   H     50.70000000    80.85000000    70.31000000
   N     50.67000000    81.81000000    65.78000000
   C     51.42000000    82.75000000    64.97000000
   C     50.71000000    83.37000000    63.77000000
   O     51.19000000    84.36000000    63.23000000
   C     52.70000000    82.01000000    64.57000000
   C     53.85000000    82.76000000    63.92000000
   N     53.92000000    82.73000000    62.58000000
   O     54.74000000    83.35000000    64.53000000
   H     50.69000000    80.83000000    65.55000000
   H     51.65000000    83.62000000    65.59000000
   H     52.48000000    81.13000000    63.96000000
   H     53.10000000    81.64000000    65.52000000
   H     53.08000000    82.51000000    62.07000000
   H     54.65000000    83.30000000    62.18000000
   N     49.49000000    82.90000000    63.53000000
   C     48.65000000    83.69000000    62.64000000
   C     48.24000000    84.99000000    63.31000000
   O     47.89000000    84.99000000    64.49000000
   C     47.55000000    82.80000000    62.06000000
   C     46.67000000    83.49000000    61.05000000
   C     47.10000000    84.07000000    59.85000000
   C     45.34000000    83.68000000    61.45000000
   C     46.15000000    84.70000000    59.04000000
   C     44.37000000    84.28000000    60.63000000
   C     44.82000000    84.92000000    59.46000000
   O     43.92000000    85.60000000    58.69000000
   H     49.14000000    82.04000000    63.94000000
   H     49.34000000    83.85000000    61.81000000
   H     47.02000000    82.36000000    62.90000000
   H     48.11000000    82.02000000    61.55000000
   H     48.16000000    84.09000000    59.62000000
   H     45.09000000    83.32000000    62.44000000
   H     46.44000000    85.08000000    58.08000000
   H     43.34000000    84.38000000    60.92000000
   H     44.36000000    85.88000000    57.89000000
   N     48.23000000    86.08000000    62.54000000
   C     48.11000000    87.47000000    62.90000000
   C     49.10000000    87.99000000    63.94000000
   O     49.06000000    89.16000000    64.28000000
   C     46.71000000    87.94000000    63.26000000
   C     45.63000000    87.40000000    62.32000000
   C     44.21000000    87.84000000    62.64000000
   O     43.71000000    87.65000000    63.77000000
   O     43.62000000    88.46000000    61.73000000
   H     48.48000000    86.00000000    61.56000000
   H     48.28000000    87.98000000    61.95000000
   H     46.62000000    89.03000000    63.28000000
   H     46.62000000    87.67000000    64.32000000
   H     45.73000000    86.34000000    62.53000000
   H     45.84000000    87.52000000    61.26000000
   N     50.20000000    87.27000000    64.20000000
   C     51.43000000    87.74000000    64.81000000
   C     52.45000000    88.31000000    63.84000000
   O     53.46000000    88.86000000    64.26000000
   C     52.06000000    86.68000000    65.71000000
   C     51.23000000    86.28000000    66.93000000
   C     51.03000000    87.47000000    67.85000000
   O     49.92000000    87.80000000    68.30000000
   O     51.96000000    88.23000000    68.22000000
   H     50.08000000    86.27000000    64.14000000
   H     51.09000000    88.65000000    65.31000000
   H     52.98000000    87.11000000    66.11000000
   H     52.34000000    85.79000000    65.15000000
   H     51.88000000    85.62000000    67.51000000
   H     50.24000000    85.87000000    66.71000000
   N     52.25000000    88.20000000    62.52000000
   C     53.11000000    88.73000000    61.48000000
   H     54.07800000    88.23100000    61.52100000
   H     52.65300000    88.55600000    60.50600000
   H     53.24700000    89.80100000    61.63100000
   H     51.37000000    87.82000000    62.19000000
  Ca     51.10000000    89.53000000    70.25000000
   O     52.89000000    91.15000000    69.26000000
   H     53.72000000    91.13000000    69.74000000
   H     53.14000000    91.01000000    68.35000000
   O     49.78000000    91.03000000    68.51000000
   H     49.61000000    91.96000000    68.61000000
   H     49.10000000    90.73000000    67.90000000
   O     50.50000000    92.09000000    71.40000000
   H     51.33000000    91.83000000    71.80000000
   H     49.94000000    92.32000000    72.14000000

Ca 1.00



