%chk=loop2.holoCaM-CaMKII.run32.water2.chk
%nprocshared=20
%mem=10GB
%nosave
#b3lyp/svp scf=(tight,noincore,xqc) Test 
#IOP(5/87=12) Density=Current Pop=(MK,readradii) iop(6/33=2) iop(6/42=6)

loop2.holoCaM-CaMKII.run32.water2 

   -2  1 
   C     70.84000000    58.02000000     7.75000000
   C     71.17000000    58.47000000     6.33000000
   O     71.98000000    59.37000000     6.17000000
   H     69.80400000    57.68400000     7.79200000
   H     71.50000000    57.20000000     8.03400000
   H     70.97900000    58.85400000     8.43800000
   N     70.51000000    57.87000000     5.34000000
   C     70.84000000    58.16000000     3.96000000
   C     70.23000000    59.48000000     3.51000000
   O     69.15000000    59.84000000     3.95000000
   C     70.28000000    57.06000000     3.07000000
   C     70.79000000    57.01000000     1.64000000
   O     70.24000000    56.25000000     0.82000000
   O     71.85000000    57.60000000     1.34000000
   H     69.66000000    57.35000000     5.50000000
   H     71.92000000    58.26000000     3.90000000
   H     69.19000000    57.02000000     3.15000000
   H     70.62000000    56.06000000     3.35000000
   N     70.93000000    60.06000000     2.53000000
   C     70.65000000    61.31000000     1.87000000
   C     70.91000000    61.38000000     0.37000000
   O     70.76000000    62.47000000    -0.16000000
   C     71.47000000    62.30000000     2.70000000
   H     71.75000000    59.55000000     2.24000000
   H     69.59000000    61.58000000     1.99000000
   H     71.36000000    63.30000000     2.27000000
   H     71.04000000    62.33000000     3.70000000
   H     72.54000000    62.08000000     2.73000000
   N     71.15000000    60.29000000    -0.36000000
   C     71.50000000    60.21000000    -1.76000000
   C     71.04000000    58.98000000    -2.53000000
   O     71.11000000    58.92000000    -3.76000000
   C     73.02000000    60.31000000    -1.84000000
   C     73.82000000    59.30000000    -1.04000000
   O     73.24000000    58.22000000    -0.77000000
   O     74.98000000    59.46000000    -0.60000000
   H     71.34000000    59.42000000     0.11000000
   H     70.98000000    61.04000000    -2.23000000
   H     73.42000000    61.27000000    -1.52000000
   H     73.31000000    60.20000000    -2.89000000
   N     70.49000000    57.93000000    -1.90000000
   C     70.22000000    56.58000000    -2.35000000
   C     71.40000000    55.97000000    -3.08000000
   O     71.12000000    55.21000000    -4.01000000
   H     70.52000000    58.01000000    -0.90000000
   H     69.32000000    56.51000000    -2.96000000
   H     70.02000000    55.98000000    -1.46000000
   N     72.65000000    56.18000000    -2.68000000
   C     73.86000000    55.70000000    -3.32000000
   C     74.26000000    54.31000000    -2.86000000
   O     75.17000000    53.65000000    -3.37000000
   C     75.03000000    56.68000000    -3.26000000
   C     75.82000000    56.75000000    -1.96000000
   N     76.99000000    57.39000000    -1.96000000
   O     75.44000000    56.14000000    -0.96000000
   H     72.78000000    56.90000000    -1.98000000
   H     73.53000000    55.53000000    -4.34000000
   H     74.71000000    57.71000000    -3.41000000
   H     75.78000000    56.45000000    -4.01000000
   H     77.31000000    57.81000000    -2.82000000
   H     77.41000000    57.70000000    -1.10000000
   N     73.50000000    53.74000000    -1.93000000
   C     73.67000000    52.42000000    -1.35000000
   C     75.05000000    52.13000000    -0.77000000
   O     75.50000000    50.99000000    -0.77000000
   H     72.73000000    54.27000000    -1.54000000
   H     73.49000000    51.70000000    -2.15000000
   H     72.98000000    52.17000000    -0.56000000
   N     75.58000000    53.13000000    -0.06000000
   C     76.63000000    53.00000000     0.94000000
   C     76.47000000    54.03000000     2.05000000
   O     75.74000000    55.02000000     1.95000000
   C     77.94000000    53.30000000     0.22000000
   C     78.51000000    52.11000000    -0.55000000
   O     77.85000000    54.31000000    -0.76000000
   H     75.05000000    53.99000000    -0.10000000
   H     76.70000000    52.07000000     1.49000000
   H     78.69000000    53.67000000     0.93000000
   H     76.94000000    54.61000000    -0.77000000
   H     77.75000000    51.56000000    -1.11000000
   H     79.26000000    52.40000000    -1.29000000
   H     79.08000000    51.59000000     0.22000000
   N     77.06000000    53.77000000     3.22000000
   C     77.20000000    54.86000000     4.15000000
   C     78.31000000    55.79000000     3.66000000
   O     79.35000000    55.31000000     3.22000000
   C     77.36000000    54.43000000     5.61000000
   C     76.35000000    53.35000000     5.97000000
   C     77.20000000    55.59000000     6.58000000
   C     76.75000000    52.62000000     7.25000000
   H     77.41000000    52.83000000     3.31000000
   H     76.24000000    55.38000000     4.16000000
   H     78.41000000    54.13000000     5.70000000
   H     76.42000000    52.55000000     5.23000000
   H     75.29000000    53.62000000     5.99000000
   H     78.02000000    56.28000000     6.42000000
   H     76.21000000    56.00000000     6.41000000
   H     77.25000000    55.21000000     7.61000000
   H     76.11000000    51.76000000     7.44000000
   H     77.81000000    52.41000000     7.21000000
   H     76.62000000    53.26000000     8.13000000
   N     78.04000000    57.09000000     3.71000000
   C     79.05000000    58.13000000     3.60000000
   C     79.38000000    58.79000000     4.93000000
   O     78.66000000    58.64000000     5.92000000
   C     78.71000000    59.13000000     2.50000000
   C     78.05000000    58.70000000     1.20000000
   O     76.86000000    58.32000000     1.17000000
   O     78.69000000    58.85000000     0.14000000
   H     77.16000000    57.41000000     4.10000000
   H     79.94000000    57.59000000     3.26000000
   H     79.55000000    59.80000000     2.31000000
   H     77.93000000    59.78000000     2.90000000
   N     80.56000000    59.39000000     5.06000000
   C     80.99000000    59.84000000     6.37000000
   C     79.96000000    60.67000000     7.12000000
   O     79.78000000    60.38000000     8.31000000
   C     82.25000000    60.68000000     6.17000000
   C     82.96000000    61.17000000     7.41000000
   C     83.21000000    62.53000000     7.62000000
   C     83.30000000    60.23000000     8.39000000
   C     83.85000000    62.97000000     8.79000000
   C     83.87000000    60.66000000     9.59000000
   C     84.13000000    62.03000000     9.78000000
   H     81.16000000    59.34000000     4.24000000
   H     81.30000000    59.01000000     7.00000000
   H     82.00000000    61.56000000     5.57000000
   H     82.94000000    60.03000000     5.63000000
   H     82.95000000    63.32000000     6.94000000
   H     83.21000000    59.16000000     8.24000000
   H     83.97000000    64.04000000     8.90000000
   H     84.04000000    59.97000000    10.41000000
   H     84.62000000    62.39000000    10.67000000
   N     79.36000000    61.71000000     6.53000000
   C     78.40000000    62.57000000     7.18000000
   C     77.26000000    61.77000000     7.81000000
   O     76.72000000    62.17000000     8.85000000
   C     77.97000000    63.68000000     6.22000000
   C     78.23000000    63.02000000     4.87000000
   C     79.38000000    62.06000000     5.12000000
   H     79.01000000    63.00000000     7.97000000
   H     76.91000000    63.88000000     6.32000000
   H     78.63000000    64.53000000     6.34000000
   H     77.30000000    62.52000000     4.60000000
   H     78.52000000    63.83000000     4.19000000
   H     79.30000000    61.25000000     4.40000000
   H     80.34000000    62.55000000     4.98000000
   N     76.85000000    60.68000000     7.16000000
   C     75.71000000    59.85000000     7.52000000
   C     76.15000000    59.03000000     8.73000000
   O     75.40000000    58.74000000     9.65000000
   C     75.16000000    59.06000000     6.34000000
   C     75.07000000    59.77000000     5.00000000
   C     74.70000000    58.80000000     3.88000000
   O     74.25000000    59.24000000     2.80000000
   O     75.13000000    57.63000000     3.92000000
   H     77.36000000    60.41000000     6.34000000
   H     74.92000000    60.50000000     7.89000000
   H     74.26000000    58.54000000     6.67000000
   H     75.92000000    58.30000000     6.11000000
   H     75.99000000    60.30000000     4.75000000
   H     74.30000000    60.54000000     4.99000000
   N     77.41000000    58.58000000     8.77000000
   C     78.01000000    57.88000000     9.89000000
   H     78.91500000    58.40200000    10.20100000
   H     77.30500000    57.85000000    10.72100000
   H     78.26200000    56.86300000     9.59000000
   H     77.92000000    58.83000000     7.93000000
  Ca     74.54000000    57.25000000     1.27000000
   O     73.18000000    55.80000000     3.34000000
   H     73.97000000    56.04000000     3.81000000
   H     72.59000000    55.47000000     4.01000000
   O     72.96000000    55.18000000     0.47000000
   H     73.04000000    54.56000000     1.20000000
   H     72.12000000    55.62000000     0.61000000

Ca 1.00



