%chk=loop1.apoCaM-CA-Ng.Init31.run85.water4.chk
%nprocshared=20
%mem=10GB
%nosave
#b3lyp/svp scf=(tight,noincore,xqc) Test 
#IOP(5/87=12) Density=Current Pop=(MK,readradii) iop(6/33=2) iop(6/42=6)

loop1.apoCaM-CA-Ng.Init31.run85.water4 

   0  1 
   C     62.62000000    40.31000000    21.55000000
   C     62.62000000    40.42000000    20.03000000
   O     62.05000000    41.42000000    19.61000000
   H     63.55000000    39.84600000    21.88000000
   H     62.53600000    41.30500000    21.98700000
   H     61.77600000    39.69900000    21.87100000
   N     63.27000000    39.57000000    19.23000000
   C     63.38000000    39.61000000    17.78000000
   C     63.60000000    38.21000000    17.22000000
   O     64.12000000    37.33000000    17.90000000
   C     64.45000000    40.59000000    17.31000000
   C     64.27000000    41.14000000    15.90000000
   O     63.14000000    41.01000000    15.38000000
   O     65.28000000    41.48000000    15.25000000
   H     63.79000000    38.79000000    19.61000000
   H     62.37000000    39.89000000    17.49000000
   H     65.38000000    40.02000000    17.28000000
   H     64.58000000    41.33000000    18.10000000
   N     63.19000000    38.06000000    15.96000000
   C     63.12000000    36.78000000    15.28000000
   C     64.42000000    36.00000000    15.16000000
   O     64.52000000    34.85000000    15.59000000
   C     62.41000000    37.00000000    13.94000000
   C     60.96000000    37.48000000    13.94000000
   C     60.35000000    37.43000000    12.54000000
   C     58.82000000    37.38000000    12.48000000
   N     58.28000000    37.14000000    11.14000000
   H     62.79000000    38.91000000    15.57000000
   H     62.50000000    36.20000000    15.96000000
   H     62.36000000    36.05000000    13.42000000
   H     63.01000000    37.58000000    13.24000000
   H     61.07000000    38.53000000    14.18000000
   H     60.45000000    36.87000000    14.69000000
   H     60.75000000    36.51000000    12.10000000
   H     60.79000000    38.19000000    11.90000000
   H     58.38000000    38.23000000    13.00000000
   H     58.57000000    36.51000000    13.09000000
   H     58.66000000    36.39000000    10.59000000
   H     57.28000000    37.04000000    11.21000000
   H     58.50000000    37.96000000    10.59000000
   N     65.50000000    36.54000000    14.60000000
   C     65.81000000    37.92000000    14.26000000
   C     67.16000000    38.25000000    14.90000000
   O     67.97000000    37.35000000    15.09000000
   C     66.01000000    37.93000000    12.75000000
   C     66.26000000    39.30000000    12.14000000
   O     67.08000000    39.46000000    11.21000000
   O     65.53000000    40.22000000    12.56000000
   H     66.23000000    35.85000000    14.62000000
   H     65.06000000    38.64000000    14.58000000
   H     65.10000000    37.59000000    12.26000000
   H     66.79000000    37.20000000    12.54000000
   N     67.39000000    39.45000000    15.43000000
   C     68.64000000    39.80000000    16.09000000
   C     68.76000000    41.28000000    16.43000000
   O     68.01000000    41.83000000    17.23000000
   H     66.69000000    40.18000000    15.50000000
   H     69.47000000    39.63000000    15.40000000
   H     68.80000000    39.19000000    16.98000000
   N     69.65000000    41.99000000    15.74000000
   C     69.95000000    43.40000000    15.83000000
   C     71.40000000    43.74000000    16.14000000
   O     72.33000000    42.98000000    15.90000000
   C     69.44000000    44.08000000    14.56000000
   C     68.02000000    43.76000000    14.12000000
   O     67.06000000    44.40000000    14.58000000
   O     67.91000000    42.80000000    13.32000000
   H     70.38000000    41.44000000    15.30000000
   H     69.33000000    43.76000000    16.66000000
   H     70.16000000    43.97000000    13.75000000
   H     69.36000000    45.14000000    14.80000000
   N     71.71000000    44.93000000    16.66000000
   C     70.91000000    46.11000000    16.94000000
   C     70.93000000    47.08000000    15.77000000
   O     70.18000000    48.05000000    15.76000000
   H     72.70000000    45.12000000    16.73000000
   H     71.39000000    46.60000000    17.79000000
   H     69.90000000    45.76000000    17.14000000
   N     71.78000000    46.86000000    14.76000000
   C     72.05000000    47.82000000    13.71000000
   C     72.58000000    49.16000000    14.19000000
   O     71.98000000    50.20000000    13.95000000
   C     70.83000000    48.05000000    12.81000000
   C     70.20000000    46.77000000    12.27000000
   O     71.30000000    48.56000000    11.58000000
   H     72.29000000    45.99000000    14.82000000
   H     72.78000000    47.30000000    13.09000000
   H     70.15000000    48.79000000    13.22000000
   H     71.09000000    49.50000000    11.66000000
   H     70.97000000    46.07000000    11.93000000
   H     69.63000000    46.35000000    13.09000000
   H     69.50000000    46.84000000    11.44000000
   N     73.55000000    49.09000000    15.11000000
   C     74.39000000    50.17000000    15.59000000
   C     75.20000000    50.80000000    14.47000000
   O     76.39000000    50.49000000    14.37000000
   C     73.72000000    51.20000000    16.50000000
   C     72.68000000    50.58000000    17.42000000
   C     74.74000000    51.97000000    17.34000000
   C     73.17000000    49.44000000    18.31000000
   H     73.83000000    48.18000000    15.45000000
   H     75.01000000    49.59000000    16.27000000
   H     73.26000000    51.92000000    15.83000000
   H     71.90000000    50.16000000    16.79000000
   H     72.24000000    51.39000000    18.02000000
   H     75.36000000    52.58000000    16.70000000
   H     74.38000000    52.75000000    18.01000000
   H     75.40000000    51.33000000    17.93000000
   H     74.07000000    49.79000000    18.82000000
   H     72.46000000    49.15000000    19.07000000
   H     73.42000000    48.57000000    17.71000000
   N     74.66000000    51.67000000    13.62000000
   C     75.29000000    52.21000000    12.44000000
   C     74.56000000    53.52000000    12.18000000
   O     73.51000000    53.67000000    12.81000000
   C     75.15000000    51.33000000    11.20000000
   C     73.80000000    51.33000000    10.51000000
   O     75.42000000    49.97000000    11.43000000
   H     73.73000000    52.00000000    13.84000000
   H     76.35000000    52.35000000    12.69000000
   H     75.93000000    51.68000000    10.52000000
   H     76.38000000    49.94000000    11.46000000
   H     73.70000000    52.08000000     9.71000000
   H     73.66000000    50.38000000    10.00000000
   H     73.03000000    51.53000000    11.26000000
   N     74.98000000    54.44000000    11.31000000
   C     74.19000000    55.61000000    10.97000000
   C     73.11000000    55.38000000     9.91000000
   O     73.11000000    54.45000000     9.11000000
   C     75.05000000    56.78000000    10.51000000
   C     76.11000000    57.19000000    11.53000000
   O     75.79000000    56.33000000     9.39000000
   H     75.92000000    54.32000000    10.96000000
   H     73.61000000    55.95000000    11.82000000
   H     74.47000000    57.63000000    10.16000000
   H     76.62000000    55.88000000     9.58000000
   H     75.58000000    57.56000000    12.40000000
   H     76.73000000    56.35000000    11.85000000
   H     76.69000000    58.00000000    11.07000000
   N     72.12000000    56.27000000     9.94000000
   C     70.96000000    56.16000000     9.07000000
   C     70.24000000    54.83000000     9.24000000
   O     69.71000000    54.29000000     8.28000000
   C     71.37000000    56.40000000     7.62000000
   C     72.08000000    57.73000000     7.36000000
   C     71.88000000    58.03000000     5.88000000
   C     72.09000000    59.51000000     5.59000000
   N     71.22000000    60.34000000     6.44000000
   H     72.11000000    57.01000000    10.62000000
   H     70.17000000    56.83000000     9.39000000
   H     70.43000000    56.40000000     7.07000000
   H     71.99000000    55.60000000     7.22000000
   H     73.15000000    57.72000000     7.53000000
   H     71.59000000    58.46000000     8.00000000
   H     70.89000000    57.71000000     5.58000000
   H     72.62000000    57.48000000     5.29000000
   H     71.93000000    59.70000000     4.53000000
   H     73.15000000    59.68000000     5.79000000
   H     71.12000000    61.33000000     6.25000000
   H     70.31000000    59.92000000     6.55000000
   H     71.69000000    60.35000000     7.33000000
   N     70.15000000    54.30000000    10.47000000
   C     69.36000000    53.12000000    10.79000000
   C     69.98000000    52.16000000    11.79000000
   O     70.27000000    51.01000000    11.46000000
   C     67.88000000    53.48000000    10.87000000
   C     67.03000000    52.28000000    11.26000000
   C     65.54000000    52.52000000    11.39000000
   O     64.73000000    51.70000000    10.90000000
   O     65.11000000    53.55000000    11.95000000
   H     70.67000000    54.78000000    11.18000000
   H     69.35000000    52.52000000     9.88000000
   H     67.57000000    53.85000000     9.89000000
   H     67.78000000    54.30000000    11.58000000
   H     67.46000000    51.93000000    12.21000000
   H     67.28000000    51.49000000    10.55000000
   N     70.24000000    52.50000000    13.06000000
   C     70.09000000    53.75000000    13.77000000
   H     69.06900000    53.83500000    14.14300000
   H     70.78600000    53.77800000    14.60900000
   H     70.30000000    54.58000000    13.09500000
   H     70.86000000    51.87000000    13.54000000
  Ca     65.55000000    42.74000000    12.88000000
   O     64.86000000    45.28000000    11.85000000
   H     64.22000000    45.95000000    12.10000000
   H     65.34000000    45.66000000    11.12000000
   O     63.74000000    42.94000000    11.02000000
   H     63.81000000    43.67000000    10.40000000
   H     62.81000000    42.75000000    11.08000000
   O     63.55000000    43.94000000    14.16000000
   H     63.78000000    43.98000000    15.09000000
   H     62.70000000    44.38000000    14.11000000
   O     67.01000000    42.65000000    10.61000000
   H     66.63000000    42.49000000     9.75000000
   H     67.93000000    42.87000000    10.43000000

Ca 1.00



