%chk=loop3.holoCaM.run43.water2.chk
%nprocshared=20
%mem=10GB
%nosave
#b3lyp/svp scf=(tight,noincore,xqc) Test 
#IOP(5/87=12) Density=Current Pop=(MK,readradii) iop(6/33=2) iop(6/42=6)

loop3.holoCaM.run43.water2 

   0  1 
   C     78.37000000    53.38000000    24.07000000
   C     79.68000000    53.69000000    23.37000000
   O     80.69000000    53.50000000    24.05000000
   H     77.58400000    53.24800000    23.32700000
   H     78.47600000    52.46400000    24.65200000
   H     78.10800000    54.20400000    24.73300000
   N     79.65000000    54.12000000    22.11000000
   C     80.79000000    54.56000000    21.33000000
   C     81.43000000    55.82000000    21.89000000
   O     81.44000000    56.81000000    21.18000000
   C     80.28000000    54.63000000    19.89000000
   C     81.52000000    54.82000000    19.02000000
   O     81.33000000    55.30000000    17.88000000
   O     82.67000000    54.69000000    19.48000000
   H     78.81000000    54.20000000    21.55000000
   H     81.57000000    53.80000000    21.40000000
   H     79.46000000    55.34000000    19.82000000
   H     79.85000000    53.64000000    19.74000000
   N     81.83000000    55.90000000    23.17000000
   C     82.25000000    57.13000000    23.82000000
   C     83.43000000    57.82000000    23.16000000
   O     83.64000000    59.02000000    23.24000000
   C     82.63000000    56.81000000    25.26000000
   C     81.39000000    56.62000000    26.14000000
   C     80.32000000    57.70000000    26.02000000
   C     79.31000000    57.78000000    27.16000000
   N     78.30000000    58.84000000    27.04000000
   H     81.62000000    55.12000000    23.77000000
   H     81.50000000    57.92000000    23.86000000
   H     83.14000000    57.64000000    25.73000000
   H     83.31000000    55.97000000    25.39000000
   H     81.73000000    56.50000000    27.16000000
   H     80.83000000    55.71000000    25.95000000
   H     79.70000000    57.42000000    25.17000000
   H     80.81000000    58.67000000    25.95000000
   H     79.91000000    57.85000000    28.06000000
   H     78.87000000    56.78000000    27.18000000
   H     77.92000000    58.97000000    26.11000000
   H     77.50000000    58.48000000    27.53000000
   H     78.53000000    59.76000000    27.40000000
   N     84.31000000    57.08000000    22.48000000
   C     85.35000000    57.60000000    21.61000000
   C     84.79000000    58.22000000    20.34000000
   O     85.26000000    59.28000000    19.94000000
   C     86.37000000    56.51000000    21.30000000
   C     85.72000000    55.22000000    20.83000000
   O     85.93000000    54.85000000    19.65000000
   O     84.99000000    54.55000000    21.59000000
   H     84.14000000    56.10000000    22.31000000
   H     85.93000000    58.37000000    22.13000000
   H     86.88000000    56.29000000    22.24000000
   H     87.10000000    56.87000000    20.58000000
   N     83.74000000    57.72000000    19.69000000
   C     83.01000000    58.17000000    18.52000000
   C     83.63000000    57.66000000    17.22000000
   O     83.54000000    58.32000000    16.19000000
   H     83.36000000    56.91000000    20.15000000
   H     83.06000000    59.25000000    18.38000000
   H     81.98000000    57.82000000    18.43000000
   N     84.43000000    56.59000000    17.31000000
   C     85.11000000    56.13000000    16.11000000
   C     84.17000000    55.61000000    15.04000000
   O     84.53000000    55.47000000    13.87000000
   C     86.27000000    55.20000000    16.46000000
   C     85.70000000    53.79000000    16.56000000
   N     86.34000000    52.81000000    15.93000000
   O     84.72000000    53.54000000    17.26000000
   H     84.51000000    56.15000000    18.22000000
   H     85.67000000    56.98000000    15.72000000
   H     86.87000000    55.49000000    17.31000000
   H     86.88000000    55.26000000    15.56000000
   H     87.25000000    52.89000000    15.50000000
   H     86.05000000    51.86000000    16.14000000
   N     82.92000000    55.29000000    15.38000000
   C     81.96000000    54.78000000    14.42000000
   C     81.55000000    53.32000000    14.56000000
   O     80.81000000    52.78000000    13.74000000
   H     82.66000000    55.34000000    16.36000000
   H     82.23000000    55.01000000    13.39000000
   H     81.07000000    55.33000000    14.71000000
   N     82.10000000    52.61000000    15.54000000
   C     82.14000000    51.17000000    15.73000000
   C     82.08000000    50.73000000    17.18000000
   O     82.62000000    51.45000000    18.02000000
   C     83.44000000    50.63000000    15.15000000
   C     83.60000000    50.82000000    13.66000000
   C     84.43000000    51.82000000    13.13000000
   C     82.85000000    50.00000000    12.81000000
   C     84.55000000    52.03000000    11.75000000
   C     82.94000000    50.18000000    11.42000000
   C     83.71000000    51.25000000    10.92000000
   O     83.73000000    51.50000000     9.58000000
   H     82.67000000    53.11000000    16.20000000
   H     81.27000000    50.74000000    15.23000000
   H     83.53000000    49.56000000    15.34000000
   H     84.26000000    51.08000000    15.72000000
   H     85.00000000    52.48000000    13.77000000
   H     82.17000000    49.28000000    13.24000000
   H     85.26000000    52.73000000    11.35000000
   H     82.34000000    49.57000000    10.77000000
   H     83.09000000    50.91000000     9.17000000
   N     81.53000000    49.55000000    17.50000000
   C     81.42000000    49.02000000    18.85000000
   C     82.05000000    47.64000000    18.99000000
   O     81.70000000    46.62000000    18.41000000
   C     79.96000000    49.15000000    19.27000000
   C     79.77000000    50.54000000    19.88000000
   C     79.51000000    48.05000000    20.23000000
   C     78.30000000    50.91000000    20.04000000
   H     81.11000000    48.98000000    16.79000000
   H     82.05000000    49.70000000    19.41000000
   H     79.41000000    48.99000000    18.34000000
   H     80.15000000    51.27000000    19.16000000
   H     80.36000000    50.43000000    20.79000000
   H     79.50000000    47.07000000    19.75000000
   H     80.20000000    47.85000000    21.05000000
   H     78.52000000    48.18000000    20.67000000
   H     78.31000000    51.99000000    20.12000000
   H     77.83000000    50.45000000    19.17000000
   H     77.94000000    50.36000000    20.90000000
   N     83.16000000    47.67000000    19.73000000
   C     83.94000000    46.48000000    20.01000000
   C     83.25000000    45.59000000    21.04000000
   O     82.23000000    45.92000000    21.64000000
   C     85.34000000    46.94000000    20.39000000
   O     85.23000000    47.79000000    21.51000000
   H     83.46000000    48.56000000    20.11000000
   H     84.05000000    45.86000000    19.12000000
   H     85.88000000    47.44000000    19.59000000
   H     85.95000000    46.06000000    20.59000000
   H     85.04000000    48.71000000    21.30000000
   N     83.88000000    44.46000000    21.34000000
   C     83.44000000    43.64000000    22.46000000
   C     83.62000000    44.32000000    23.80000000
   O     82.67000000    44.31000000    24.58000000
   C     84.27000000    42.36000000    22.42000000
   H     84.75000000    44.26000000    20.85000000
   H     82.38000000    43.45000000    22.35000000
   H     84.07000000    41.74000000    21.54000000
   H     85.33000000    42.60000000    22.45000000
   H     84.05000000    41.89000000    23.38000000
   N     84.69000000    45.11000000    23.93000000
   C     84.99000000    46.00000000    25.03000000
   C     84.03000000    47.17000000    25.16000000
   O     84.00000000    47.85000000    26.19000000
   C     86.47000000    46.36000000    25.05000000
   H     85.42000000    45.00000000    23.24000000
   H     84.71000000    45.38000000    25.88000000
   H     87.11000000    45.48000000    24.98000000
   H     86.86000000    47.10000000    24.35000000
   H     86.75000000    46.76000000    26.02000000
   N     83.02000000    47.31000000    24.29000000
   C     81.89000000    48.21000000    24.34000000
   C     80.56000000    47.47000000    24.31000000
   O     79.70000000    47.84000000    25.11000000
   C     81.90000000    49.09000000    23.09000000
   C     82.93000000    50.21000000    23.24000000
   C     83.23000000    50.90000000    21.92000000
   O     82.95000000    52.12000000    21.92000000
   O     83.76000000    50.35000000    20.94000000
   H     83.14000000    46.75000000    23.46000000
   H     81.85000000    48.88000000    25.20000000
   H     80.87000000    49.46000000    23.02000000
   H     82.07000000    48.46000000    22.22000000
   H     83.84000000    49.73000000    23.60000000
   H     82.62000000    50.97000000    23.96000000
   N     80.40000000    46.30000000    23.68000000
   C     79.18000000    45.52000000    23.69000000
   H     78.39400000    46.06900000    23.17100000
   H     79.35200000    44.56900000    23.18600000
   H     78.87400000    45.33600000    24.72000000
   H     81.11000000    46.06000000    23.00000000
  Ca     84.30000000    52.72000000    19.71000000
   O     85.38000000    50.56000000    18.17000000
   H     85.00000000    49.85000000    17.65000000
   H     86.30000000    50.33000000    18.26000000
   O     86.73000000    52.31000000    20.91000000
   H     86.90000000    52.25000000    21.85000000
   H     87.60000000    52.33000000    20.51000000

Ca 1.00



