%chk=loop2.holoCaM.run45.water2.chk
%nprocshared=20
%mem=10GB
%nosave
#b3lyp/svp scf=(tight,noincore,xqc) Test 
#IOP(5/87=12) Density=Current Pop=(MK,readradii) iop(6/33=2) iop(6/42=6)

loop2.holoCaM.run45.water2 

   -2  1 
   C     63.99000000    67.27000000    24.65000000
   C     63.20000000    68.25000000    25.51000000
   O     63.59000000    69.41000000    25.63000000
   H     64.96900000    67.10100000    25.09900000
   H     63.45100000    66.32400000    24.58800000
   H     64.11600000    67.68400000    23.64900000
   N     62.13000000    67.88000000    26.22000000
   C     61.38000000    68.67000000    27.16000000
   C     62.25000000    69.07000000    28.35000000
   O     62.59000000    68.20000000    29.15000000
   C     60.19000000    67.87000000    27.68000000
   C     59.18000000    68.56000000    28.58000000
   O     58.31000000    67.90000000    29.19000000
   O     59.27000000    69.80000000    28.66000000
   H     62.02000000    66.87000000    26.27000000
   H     61.02000000    69.61000000    26.72000000
   H     60.58000000    66.98000000    28.18000000
   H     59.66000000    67.57000000    26.77000000
   N     62.51000000    70.37000000    28.50000000
   C     63.46000000    70.99000000    29.40000000
   C     62.89000000    71.55000000    30.70000000
   O     63.71000000    72.01000000    31.48000000
   C     64.27000000    72.02000000    28.62000000
   H     61.95000000    71.04000000    27.99000000
   H     64.16000000    70.20000000    29.66000000
   H     65.24000000    71.51000000    28.59000000
   H     63.96000000    72.09000000    27.58000000
   H     64.29000000    72.96000000    29.17000000
   N     61.60000000    71.38000000    31.01000000
   C     60.93000000    71.86000000    32.20000000
   C     60.03000000    70.83000000    32.87000000
   O     59.52000000    71.10000000    33.95000000
   C     60.19000000    73.19000000    32.09000000
   C     59.14000000    73.28000000    31.00000000
   O     58.37000000    74.27000000    30.98000000
   O     59.00000000    72.50000000    30.03000000
   H     60.97000000    70.98000000    30.32000000
   H     61.72000000    71.99000000    32.94000000
   H     60.97000000    73.90000000    31.81000000
   H     59.69000000    73.44000000    33.02000000
   N     59.79000000    69.73000000    32.15000000
   C     59.02000000    68.60000000    32.62000000
   C     57.50000000    68.64000000    32.54000000
   O     56.92000000    68.29000000    33.57000000
   H     60.30000000    69.55000000    31.30000000
   H     59.34000000    68.28000000    33.61000000
   H     59.24000000    67.81000000    31.91000000
   N     56.89000000    69.22000000    31.50000000
   C     55.50000000    69.61000000    31.33000000
   C     54.65000000    68.70000000    30.45000000
   O     53.43000000    68.86000000    30.37000000
   C     55.46000000    71.09000000    30.97000000
   C     55.35000000    71.25000000    29.46000000
   N     54.36000000    71.95000000    28.90000000
   O     56.18000000    70.71000000    28.73000000
   H     57.50000000    69.34000000    30.71000000
   H     55.06000000    69.57000000    32.33000000
   H     56.34000000    71.63000000    31.32000000
   H     54.68000000    71.60000000    31.55000000
   H     53.76000000    72.54000000    29.46000000
   H     54.23000000    71.93000000    27.90000000
   N     55.22000000    67.79000000    29.67000000
   C     54.44000000    67.09000000    28.66000000
   C     54.45000000    67.47000000    27.19000000
   O     53.76000000    66.76000000    26.46000000
   H     56.23000000    67.78000000    29.59000000
   H     53.36000000    67.20000000    28.79000000
   H     54.86000000    66.08000000    28.71000000
   N     55.10000000    68.57000000    26.79000000
   C     55.07000000    69.07000000    25.43000000
   C     56.40000000    69.72000000    25.07000000
   O     57.17000000    70.18000000    25.92000000
   C     53.97000000    70.10000000    25.20000000
   C     52.56000000    69.51000000    25.20000000
   O     53.81000000    70.98000000    26.30000000
   H     55.57000000    69.11000000    27.50000000
   H     54.97000000    68.23000000    24.74000000
   H     54.18000000    70.60000000    24.26000000
   H     53.20000000    70.51000000    26.87000000
   H     51.78000000    70.25000000    25.04000000
   H     52.57000000    68.71000000    24.46000000
   H     52.35000000    69.02000000    26.15000000
   N     56.62000000    69.92000000    23.77000000
   C     57.78000000    70.56000000    23.20000000
   C     57.56000000    72.06000000    23.03000000
   O     56.72000000    72.53000000    22.27000000
   C     58.18000000    69.80000000    21.94000000
   C     58.88000000    68.54000000    22.43000000
   C     59.11000000    70.61000000    21.04000000
   C     59.28000000    67.58000000    21.30000000
   H     55.91000000    69.49000000    23.18000000
   H     58.58000000    70.37000000    23.91000000
   H     57.29000000    69.64000000    21.34000000
   H     58.07000000    68.02000000    22.93000000
   H     59.73000000    68.68000000    23.10000000
   H     60.05000000    70.69000000    21.59000000
   H     59.35000000    70.13000000    20.09000000
   H     58.70000000    71.58000000    20.75000000
   H     58.47000000    67.40000000    20.59000000
   H     60.09000000    68.04000000    20.75000000
   H     59.54000000    66.58000000    21.67000000
   N     58.43000000    72.84000000    23.68000000
   C     58.67000000    74.23000000    23.36000000
   C     59.58000000    74.46000000    22.16000000
   O     60.35000000    73.55000000    21.85000000
   C     59.24000000    75.00000000    24.56000000
   C     58.41000000    74.79000000    25.82000000
   O     58.81000000    74.30000000    26.90000000
   O     57.30000000    75.35000000    25.74000000
   H     59.02000000    72.50000000    24.42000000
   H     57.72000000    74.65000000    23.02000000
   H     59.21000000    76.04000000    24.23000000
   H     60.22000000    74.62000000    24.82000000
   N     59.54000000    75.64000000    21.55000000
   C     60.47000000    75.96000000    20.48000000
   C     61.95000000    75.69000000    20.72000000
   O     62.47000000    74.90000000    19.94000000
   C     60.15000000    77.34000000    19.93000000
   C     60.96000000    77.79000000    18.73000000
   C     61.08000000    76.89000000    17.67000000
   C     61.69000000    78.99000000    18.75000000
   C     62.01000000    77.13000000    16.65000000
   C     62.51000000    79.28000000    17.66000000
   C     62.76000000    78.32000000    16.67000000
   H     58.78000000    76.24000000    21.83000000
   H     60.19000000    75.34000000    19.63000000
   H     60.43000000    77.98000000    20.77000000
   H     59.09000000    77.52000000    19.78000000
   H     60.55000000    75.95000000    17.69000000
   H     61.52000000    79.66000000    19.58000000
   H     62.01000000    76.49000000    15.78000000
   H     62.98000000    80.25000000    17.67000000
   H     63.44000000    78.47000000    15.85000000
   N     62.63000000    76.19000000    21.75000000
   C     64.00000000    75.80000000    22.05000000
   C     64.19000000    74.32000000    22.35000000
   O     65.30000000    73.83000000    22.13000000
   C     64.49000000    76.80000000    23.09000000
   C     63.20000000    77.17000000    23.82000000
   C     62.18000000    77.20000000    22.68000000
   H     64.63000000    75.95000000    21.17000000
   H     65.24000000    76.42000000    23.78000000
   H     64.80000000    77.76000000    22.68000000
   H     62.92000000    76.48000000    24.62000000
   H     63.29000000    78.10000000    24.37000000
   H     61.17000000    77.08000000    23.09000000
   H     62.12000000    78.14000000    22.12000000
   N     63.10000000    73.63000000    22.69000000
   C     63.10000000    72.20000000    22.91000000
   C     63.10000000    71.46000000    21.58000000
   O     63.89000000    70.54000000    21.34000000
   C     61.95000000    71.78000000    23.83000000
   C     62.03000000    72.59000000    25.12000000
   C     60.94000000    72.16000000    26.10000000
   O     59.91000000    71.66000000    25.61000000
   O     61.03000000    72.31000000    27.34000000
   H     62.25000000    74.17000000    22.69000000
   H     63.98000000    71.79000000    23.40000000
   H     62.15000000    70.73000000    24.00000000
   H     61.01000000    71.96000000    23.30000000
   H     61.96000000    73.66000000    24.97000000
   H     62.94000000    72.32000000    25.65000000
   N     62.36000000    71.93000000    20.58000000
   C     62.34000000    71.39000000    19.24000000
   H     62.56700000    72.18200000    18.52600000
   H     63.08600000    70.60000000    19.15500000
   H     61.35200000    70.98200000    19.02700000
   H     61.81000000    72.76000000    20.76000000
  Ca     58.27000000    72.00000000    27.68000000
   O     56.63000000    73.86000000    28.89000000
   H     57.14000000    74.17000000    29.64000000
   H     55.93000000    74.50000000    28.79000000
   O     56.10000000    72.83000000    26.18000000
   H     56.07000000    73.79000000    26.18000000
   H     55.19000000    72.56000000    26.34000000

Ca 1.00



