%chk=loop3.apoCaM-CA-Ng.Init31.run4.water6.chk
%nprocshared=20
%mem=10GB
%nosave
#b3lyp/svp scf=(tight,noincore,xqc) Test 
#IOP(5/87=12) Density=Current Pop=(MK,readradii) iop(6/33=2) iop(6/42=6)

loop3.apoCaM-CA-Ng.Init31.run4.water6 

   0  1 
   C     76.10000000    50.25000000    32.14000000
   C     75.96000000    49.08000000    33.10000000
   O     74.90000000    48.87000000    33.70000000
   H     77.14100000    50.34200000    31.83000000
   H     75.47400000    50.07900000    31.26400000
   H     75.78700000    51.16800000    32.63700000
   N     77.00000000    48.29000000    33.35000000
   C     77.02000000    47.22000000    34.33000000
   C     76.85000000    47.67000000    35.78000000
   O     76.42000000    46.95000000    36.68000000
   C     78.31000000    46.41000000    34.26000000
   C     78.69000000    46.04000000    32.83000000
   O     79.24000000    46.89000000    32.11000000
   O     78.64000000    44.85000000    32.43000000
   H     77.82000000    48.49000000    32.79000000
   H     76.22000000    46.52000000    34.10000000
   H     78.33000000    45.52000000    34.88000000
   H     79.13000000    47.05000000    34.58000000
   N     77.16000000    48.94000000    36.03000000
   C     76.79000000    49.66000000    37.23000000
   C     77.26000000    48.96000000    38.50000000
   O     78.43000000    48.63000000    38.61000000
   C     77.25000000    51.12000000    37.16000000
   C     76.65000000    51.74000000    35.90000000
   C     77.18000000    53.17000000    35.83000000
   C     76.65000000    54.09000000    36.92000000
   N     77.31000000    55.40000000    37.04000000
   H     77.53000000    49.46000000    35.25000000
   H     75.71000000    49.66000000    37.35000000
   H     78.33000000    51.12000000    37.08000000
   H     76.95000000    51.68000000    38.04000000
   H     75.56000000    51.68000000    35.85000000
   H     77.05000000    51.31000000    34.99000000
   H     76.81000000    53.66000000    34.92000000
   H     78.26000000    53.16000000    35.96000000
   H     76.65000000    53.53000000    37.86000000
   H     75.57000000    54.20000000    36.82000000
   H     78.32000000    55.27000000    37.02000000
   H     77.17000000    56.04000000    36.27000000
   H     77.01000000    55.88000000    37.88000000
   N     76.41000000    48.74000000    39.51000000
   C     76.75000000    47.91000000    40.65000000
   C     76.52000000    46.43000000    40.36000000
   O     76.17000000    45.71000000    41.29000000
   C     76.17000000    48.44000000    41.96000000
   C     76.30000000    49.93000000    42.23000000
   O     77.42000000    50.48000000    42.17000000
   O     75.30000000    50.48000000    42.74000000
   H     75.49000000    49.16000000    39.42000000
   H     77.83000000    47.93000000    40.81000000
   H     76.53000000    47.77000000    42.74000000
   H     75.09000000    48.29000000    41.99000000
   N     76.74000000    45.87000000    39.17000000
   C     76.52000000    44.49000000    38.79000000
   C     77.80000000    43.67000000    38.64000000
   O     78.89000000    44.23000000    38.71000000
   H     76.99000000    46.46000000    38.39000000
   H     75.95000000    44.48000000    37.87000000
   H     75.86000000    43.98000000    39.49000000
   N     77.79000000    42.34000000    38.54000000
   C     76.70000000    41.39000000    38.48000000
   C     77.02000000    40.42000000    37.34000000
   O     77.56000000    39.34000000    37.52000000
   C     76.67000000    40.67000000    39.82000000
   C     75.34000000    39.97000000    40.05000000
   N     74.73000000    39.85000000    41.23000000
   O     74.77000000    39.46000000    39.09000000
   H     78.73000000    41.97000000    38.52000000
   H     75.81000000    41.98000000    38.27000000
   H     76.70000000    41.44000000    40.60000000
   H     77.59000000    40.10000000    39.91000000
   H     75.19000000    40.31000000    42.00000000
   H     73.83000000    39.39000000    41.21000000
   N     76.61000000    40.73000000    36.11000000
   C     76.01000000    41.92000000    35.54000000
   C     74.64000000    42.40000000    35.99000000
   O     74.15000000    43.41000000    35.49000000
   H     76.63000000    39.95000000    35.47000000
   H     75.86000000    41.73000000    34.48000000
   H     76.72000000    42.73000000    35.69000000
   N     73.94000000    41.61000000    36.81000000
   C     72.61000000    42.01000000    37.22000000
   C     72.60000000    42.97000000    38.40000000
   O     73.57000000    43.02000000    39.16000000
   C     71.75000000    40.78000000    37.50000000
   C     71.50000000    40.03000000    36.22000000
   C     70.65000000    40.57000000    35.24000000
   C     72.12000000    38.82000000    35.89000000
   C     70.17000000    39.76000000    34.21000000
   C     71.94000000    38.10000000    34.70000000
   C     70.83000000    38.53000000    33.96000000
   O     70.23000000    37.93000000    32.89000000
   H     74.35000000    40.80000000    37.25000000
   H     72.02000000    42.50000000    36.44000000
   H     70.80000000    41.20000000    37.83000000
   H     72.28000000    40.22000000    38.28000000
   H     70.21000000    41.52000000    35.52000000
   H     72.93000000    38.62000000    36.57000000
   H     69.28000000    40.04000000    33.67000000
   H     72.40000000    37.15000000    34.48000000
   H     70.65000000    37.08000000    32.71000000
   N     71.54000000    43.76000000    38.56000000
   C     71.34000000    44.61000000    39.72000000
   C     70.59000000    43.83000000    40.79000000
   O     69.49000000    43.31000000    40.59000000
   C     70.72000000    45.95000000    39.33000000
   C     71.67000000    46.79000000    38.48000000
   C     69.45000000    45.93000000    38.49000000
   C     73.02000000    47.06000000    39.12000000
   H     70.78000000    43.67000000    37.90000000
   H     72.32000000    44.85000000    40.14000000
   H     70.50000000    46.44000000    40.27000000
   H     71.19000000    47.77000000    38.48000000
   H     71.88000000    46.43000000    37.47000000
   H     68.66000000    45.34000000    38.96000000
   H     69.05000000    46.93000000    38.33000000
   H     69.61000000    45.51000000    37.50000000
   H     72.88000000    47.24000000    40.19000000
   H     73.60000000    46.16000000    38.89000000
   H     73.53000000    47.98000000    38.82000000
   N     71.22000000    43.81000000    41.97000000
   C     70.59000000    43.21000000    43.13000000
   C     69.17000000    43.67000000    43.42000000
   O     68.16000000    42.99000000    43.25000000
   C     70.65000000    41.68000000    43.12000000
   O     71.96000000    41.18000000    42.98000000
   H     72.17000000    44.11000000    42.12000000
   H     71.08000000    43.49000000    44.06000000
   H     70.05000000    41.36000000    42.26000000
   H     70.29000000    41.33000000    44.08000000
   H     71.87000000    40.34000000    42.53000000
   N     69.11000000    44.85000000    44.05000000
   C     67.91000000    45.50000000    44.53000000
   C     68.15000000    46.98000000    44.77000000
   O     69.26000000    47.50000000    44.64000000
   C     67.65000000    44.82000000    45.88000000
   H     69.98000000    45.31000000    44.26000000
   H     67.00000000    45.37000000    43.95000000
   H     67.28000000    43.82000000    45.67000000
   H     68.52000000    44.99000000    46.51000000
   H     66.79000000    45.36000000    46.28000000
   N     67.03000000    47.69000000    44.90000000
   C     66.97000000    49.13000000    45.03000000
   C     67.72000000    49.92000000    43.96000000
   O     68.05000000    51.09000000    44.12000000
   C     67.27000000    49.56000000    46.47000000
   H     66.18000000    47.16000000    44.76000000
   H     65.91000000    49.30000000    44.83000000
   H     68.32000000    49.64000000    46.75000000
   H     66.69000000    50.47000000    46.59000000
   H     66.83000000    48.84000000    47.16000000
   N     67.92000000    49.37000000    42.76000000
   C     68.58000000    50.03000000    41.65000000
   C     67.55000000    50.54000000    40.65000000
   O     67.61000000    51.70000000    40.24000000
   C     69.76000000    49.19000000    41.17000000
   C     71.12000000    49.86000000    40.98000000
   C     71.79000000    49.95000000    42.34000000
   O     72.23000000    48.95000000    42.95000000
   O     72.05000000    51.08000000    42.81000000
   H     67.63000000    48.41000000    42.68000000
   H     68.98000000    51.01000000    41.92000000
   H     69.46000000    48.71000000    40.24000000
   H     69.98000000    48.39000000    41.88000000
   H     70.81000000    50.86000000    40.66000000
   H     71.73000000    49.35000000    40.24000000
   N     66.54000000    49.74000000    40.32000000
   C     65.52000000    50.08000000    39.35000000
   H     64.67000000    50.53300000    39.86100000
   H     65.92700000    50.78600000    38.62600000
   H     65.19400000    49.17700000    38.83400000
   H     66.49000000    48.84000000    40.77000000
  Ca     73.70000000    50.19000000    44.64000000
   O     74.54000000    52.76000000    44.20000000
   H     75.18000000    52.92000000    43.51000000
   H     74.05000000    53.58000000    44.26000000
   O     72.18000000    51.92000000    46.22000000
   H     72.78000000    52.32000000    46.85000000
   H     71.34000000    52.32000000    46.40000000
   O     75.11000000    47.81000000    45.18000000
   H     75.93000000    48.20000000    45.48000000
   H     75.21000000    46.87000000    45.34000000
   O     71.87000000    48.56000000    45.90000000
   H     71.11000000    48.11000000    45.55000000
   H     71.76000000    48.53000000    46.85000000
   O     76.23000000    50.72000000    45.58000000
   H     77.07000000    51.02000000    45.23000000
   H     76.41000000    50.53000000    46.51000000
   O     74.11000000    49.55000000    47.22000000
   H     73.54000000    49.76000000    47.95000000
   H     74.87000000    49.12000000    47.62000000

Ca 1.00



