%chk=loop4.apoCaM-CA-Ng.Init295.run32.water3.chk
%nprocshared=20
%mem=10GB
%nosave
#b3lyp/svp scf=(tight,noincore,xqc) Test 
#IOP(5/87=12) Density=Current Pop=(MK,readradii) iop(6/33=2) iop(6/42=6)

loop4.apoCaM-CA-Ng.Init295.run32.water3 

   -3  1 
   C     72.41000000    60.00000000    89.78000000
   C     73.44000000    58.89000000    89.92000000
   O     74.16000000    58.61000000    88.96000000
   H     71.51400000    59.73700000    90.34300000
   H     72.82300000    60.93100000    90.17000000
   H     72.15300000    60.12800000    88.72800000
   N     73.52000000    58.15000000    91.03000000
   C     74.26000000    56.93000000    91.26000000
   C     75.76000000    57.13000000    91.39000000
   O     76.51000000    56.17000000    91.27000000
   C     73.86000000    55.80000000    90.32000000
   C     72.36000000    55.57000000    90.20000000
   O     71.69000000    55.16000000    91.18000000
   O     71.79000000    56.01000000    89.18000000
   H     72.84000000    58.32000000    91.76000000
   H     73.90000000    56.67000000    92.26000000
   H     74.35000000    54.89000000    90.66000000
   H     74.29000000    56.06000000    89.35000000
   N     76.17000000    58.40000000    91.50000000
   C     77.52000000    58.88000000    91.70000000
   C     77.76000000    59.31000000    93.15000000
   O     76.95000000    59.98000000    93.78000000
   C     77.95000000    60.00000000    90.76000000
   C     77.28000000    60.00000000    89.39000000
   C     79.46000000    60.18000000    90.60000000
   C     77.34000000    58.77000000    88.50000000
   H     75.42000000    59.07000000    91.58000000
   H     78.14000000    58.05000000    91.36000000
   H     77.60000000    60.94000000    91.19000000
   H     77.70000000    60.76000000    88.73000000
   H     76.22000000    60.21000000    89.58000000
   H     79.68000000    61.04000000    89.96000000
   H     80.03000000    60.15000000    91.52000000
   H     79.87000000    59.30000000    90.11000000
   H     78.41000000    58.61000000    88.32000000
   H     76.85000000    57.87000000    88.87000000
   H     76.81000000    58.97000000    87.57000000
   N     78.83000000    58.88000000    93.82000000
   C     79.83000000    57.86000000    93.57000000
   C     79.28000000    56.46000000    93.74000000
   O     79.80000000    55.50000000    93.17000000
   C     80.98000000    58.10000000    94.54000000
   C     81.59000000    59.49000000    94.48000000
   O     82.61000000    59.71000000    93.78000000
   O     80.92000000    60.37000000    95.06000000
   H     78.81000000    59.29000000    94.74000000
   H     80.15000000    57.97000000    92.53000000
   H     81.77000000    57.34000000    94.47000000
   H     80.59000000    57.93000000    95.54000000
   N     78.16000000    56.38000000    94.46000000
   C     77.19000000    55.32000000    94.67000000
   C     77.71000000    53.98000000    95.18000000
   O     78.44000000    53.95000000    96.17000000
   H     77.89000000    57.21000000    94.97000000
   H     76.64000000    55.12000000    93.75000000
   H     76.44000000    55.63000000    95.39000000
   N     77.41000000    52.87000000    94.50000000
   C     78.01000000    51.58000000    94.80000000
   C     78.93000000    51.17000000    93.66000000
   O     79.57000000    50.12000000    93.72000000
   C     76.98000000    50.53000000    95.20000000
   C     75.83000000    50.47000000    94.21000000
   O     76.07000000    50.34000000    92.99000000
   O     74.63000000    50.34000000    94.55000000
   H     76.80000000    52.98000000    93.71000000
   H     78.70000000    51.66000000    95.64000000
   H     76.62000000    50.91000000    96.15000000
   H     77.46000000    49.55000000    95.30000000
   N     79.15000000    52.06000000    92.69000000
   C     79.90000000    51.77000000    91.48000000
   C     79.20000000    51.00000000    90.37000000
   O     79.62000000    51.11000000    89.22000000
   H     78.67000000    52.93000000    92.83000000
   H     80.73000000    51.13000000    91.79000000
   H     80.20000000    52.76000000    91.15000000
   N     78.08000000    50.33000000    90.64000000
   C     77.38000000    49.46000000    89.71000000
   C     77.25000000    49.93000000    88.27000000
   O     77.58000000    49.30000000    87.27000000
   C     78.02000000    48.08000000    89.81000000
   C     77.67000000    47.25000000    91.04000000
   C     78.02000000    45.77000000    90.94000000
   N     77.65000000    44.98000000    91.95000000
   O     78.51000000    45.29000000    89.92000000
   H     77.61000000    50.38000000    91.53000000
   H     76.34000000    49.37000000    90.03000000
   H     79.10000000    48.21000000    89.84000000
   H     77.83000000    47.56000000    88.87000000
   H     76.58000000    47.25000000    91.10000000
   H     78.17000000    47.66000000    91.91000000
   H     77.29000000    45.42000000    92.78000000
   H     77.79000000    43.98000000    91.91000000
   N     76.61000000    51.11000000    88.21000000
   C     76.15000000    51.72000000    86.98000000
   C     74.94000000    50.99000000    86.42000000
   O     74.06000000    50.65000000    87.21000000
   C     75.88000000    53.20000000    87.26000000
   C     76.97000000    54.02000000    87.94000000
   C     75.64000000    53.88000000    85.92000000
   H     76.12000000    51.33000000    89.06000000
   H     76.90000000    51.66000000    86.20000000
   H     75.01000000    53.30000000    87.91000000
   H     77.44000000    53.46000000    88.74000000
   H     77.78000000    54.27000000    87.25000000
   H     76.54000000    54.98000000    88.24000000
   H     75.63000000    54.94000000    86.19000000
   H     76.48000000    53.83000000    85.22000000
   H     74.71000000    53.59000000    85.43000000
   N     74.80000000    50.83000000    85.10000000
   C     73.84000000    49.90000000    84.55000000
   C     73.18000000    50.39000000    83.27000000
   O     73.85000000    50.90000000    82.38000000
   C     74.62000000    48.62000000    84.28000000
   C     73.84000000    47.62000000    83.44000000
   N     72.57000000    47.31000000    83.71000000
   O     74.28000000    47.12000000    82.41000000
   H     75.55000000    51.17000000    84.52000000
   H     72.99000000    49.66000000    85.20000000
   H     74.98000000    48.16000000    85.20000000
   H     75.56000000    48.95000000    83.83000000
   H     72.08000000    47.70000000    84.50000000
   H     72.12000000    46.60000000    83.16000000
   N     71.85000000    50.33000000    83.20000000
   C     71.07000000    50.81000000    82.08000000
   C     69.61000000    50.92000000    82.49000000
   O     68.65000000    50.60000000    81.78000000
   C     71.23000000    49.94000000    80.84000000
   C     70.89000000    50.49000000    79.47000000
   C     70.66000000    51.85000000    79.25000000
   C     70.77000000    49.59000000    78.41000000
   C     70.32000000    52.31000000    77.97000000
   C     70.49000000    50.01000000    77.10000000
   C     70.20000000    51.38000000    76.92000000
   O     69.76000000    51.85000000    75.72000000
   H     71.30000000    49.86000000    83.91000000
   H     71.49000000    51.78000000    81.82000000
   H     70.59000000    49.08000000    80.98000000
   H     72.28000000    49.63000000    80.81000000
   H     70.68000000    52.54000000    80.08000000
   H     71.02000000    48.56000000    78.61000000
   H     69.81000000    53.26000000    77.93000000
   H     70.53000000    49.23000000    76.36000000
   H     69.75000000    51.14000000    75.08000000
   N     69.46000000    51.33000000    83.75000000
   C     68.17000000    51.44000000    84.40000000
   C     67.42000000    52.66000000    83.87000000
   O     66.30000000    52.43000000    83.42000000
   C     68.38000000    51.45000000    85.91000000
   C     67.22000000    50.79000000    86.64000000
   C     67.43000000    50.89000000    88.14000000
   O     68.60000000    51.14000000    88.53000000
   O     66.51000000    50.68000000    88.96000000
   H     70.29000000    51.63000000    84.23000000
   H     67.59000000    50.53000000    84.24000000
   H     68.35000000    52.48000000    86.26000000
   H     69.32000000    50.98000000    86.21000000
   H     67.26000000    49.74000000    86.36000000
   H     66.27000000    51.30000000    86.45000000
   N     67.94000000    53.85000000    83.58000000
   C     69.14000000    54.53000000    84.04000000
   C     70.15000000    54.67000000    82.91000000
   O     69.91000000    54.18000000    81.81000000
   C     68.74000000    55.84000000    84.70000000
   C     68.17000000    55.48000000    86.08000000
   C     68.07000000    56.69000000    86.98000000
   O     68.89000000    56.86000000    87.91000000
   O     67.09000000    57.44000000    86.80000000
   H     67.25000000    54.52000000    83.28000000
   H     69.59000000    53.88000000    84.78000000
   H     67.90000000    56.23000000    84.12000000
   H     69.66000000    56.40000000    84.86000000
   H     68.82000000    54.75000000    86.57000000
   H     67.13000000    55.22000000    85.94000000
   N     71.34000000    55.07000000    83.37000000
   C     72.46000000    55.51000000    82.56000000
   H     73.33400000    54.89900000    82.78700000
   H     72.20900000    55.40600000    81.50400000
   H     72.68000000    56.55400000    82.78100000
   H     71.40000000    55.27000000    84.36000000
  Ca     69.30000000    55.87000000    90.22000000
   O     69.41000000    53.71000000    91.92000000
   H     69.29000000    52.79000000    91.66000000
   H     69.43000000    53.68000000    92.88000000
   O     69.59000000    53.38000000    88.96000000
   H     69.07000000    52.61000000    88.73000000
   H     70.49000000    53.14000000    88.74000000
   O     66.92000000    54.89000000    89.85000000
   H     66.21000000    55.52000000    89.69000000
   H     66.47000000    54.05000000    89.95000000

Ca 1.00



