%chk=loop3.apoCaM-CA-Ng.Init295.run8.water3.chk
%nprocshared=20
%mem=10GB
%nosave
#b3lyp/svp scf=(tight,noincore,xqc) Test 
#IOP(5/87=12) Density=Current Pop=(MK,readradii) iop(6/33=2) iop(6/42=6)

loop3.apoCaM-CA-Ng.Init295.run8.water3 

   0  1 
   C     82.30000000    53.35000000    75.21000000
   C     82.81000000    53.53000000    76.63000000
   O     82.33000000    52.88000000    77.56000000
   H     81.42400000    53.98000000    75.05700000
   H     83.08000000    53.63500000    74.50400000
   H     82.02900000    52.30600000    75.05000000
   N     83.86000000    54.31000000    76.89000000
   C     84.29000000    54.75000000    78.20000000
   C     84.17000000    56.27000000    78.25000000
   O     84.77000000    56.99000000    77.46000000
   C     85.67000000    54.17000000    78.48000000
   C     85.98000000    54.43000000    79.95000000
   O     85.98000000    53.54000000    80.83000000
   O     86.42000000    55.55000000    80.28000000
   H     84.28000000    54.67000000    76.04000000
   H     83.56000000    54.31000000    78.88000000
   H     86.34000000    54.43000000    77.67000000
   H     85.53000000    53.10000000    78.32000000
   N     83.42000000    56.74000000    79.24000000
   C     83.13000000    58.14000000    79.50000000
   C     84.33000000    59.06000000    79.68000000
   O     84.30000000    60.25000000    79.38000000
   C     82.32000000    58.22000000    80.79000000
   C     81.67000000    59.58000000    81.03000000
   C     80.78000000    59.44000000    82.26000000
   C     80.39000000    60.87000000    82.63000000
   N     79.49000000    60.97000000    83.78000000
   H     83.03000000    56.05000000    79.86000000
   H     82.52000000    58.57000000    78.71000000
   H     82.97000000    58.04000000    81.65000000
   H     81.52000000    57.50000000    80.69000000
   H     81.15000000    59.89000000    80.12000000
   H     82.46000000    60.34000000    81.05000000
   H     81.25000000    59.01000000    83.14000000
   H     79.90000000    58.80000000    82.18000000
   H     79.80000000    61.24000000    81.79000000
   H     81.33000000    61.39000000    82.83000000
   H     79.82000000    60.49000000    84.60000000
   H     79.37000000    61.95000000    84.00000000
   H     78.63000000    60.50000000    83.57000000
   N     85.49000000    58.48000000    80.02000000
   C     86.74000000    59.20000000    80.10000000
   C     87.78000000    58.56000000    79.19000000
   O     88.98000000    58.76000000    79.35000000
   C     87.27000000    59.33000000    81.53000000
   C     87.20000000    58.18000000    82.52000000
   O     87.96000000    57.21000000    82.33000000
   O     86.45000000    58.18000000    83.52000000
   H     85.44000000    57.47000000    80.12000000
   H     86.60000000    60.18000000    79.64000000
   H     86.70000000    60.15000000    81.97000000
   H     88.27000000    59.76000000    81.55000000
   N     87.31000000    57.83000000    78.17000000
   C     87.97000000    57.29000000    77.00000000
   C     89.05000000    56.25000000    77.28000000
   O     89.90000000    56.13000000    76.40000000
   H     86.30000000    57.78000000    78.12000000
   H     88.39000000    58.15000000    76.48000000
   H     87.19000000    56.79000000    76.43000000
   N     89.05000000    55.64000000    78.47000000
   C     90.09000000    54.84000000    79.09000000
   C     89.42000000    53.65000000    79.77000000
   O     88.94000000    53.88000000    80.88000000
   C     91.01000000    55.67000000    79.97000000
   C     92.05000000    54.79000000    80.66000000
   N     93.15000000    54.49000000    79.96000000
   O     91.87000000    54.17000000    81.70000000
   H     88.30000000    55.91000000    79.09000000
   H     90.75000000    54.48000000    78.30000000
   H     90.37000000    56.16000000    80.70000000
   H     91.51000000    56.43000000    79.37000000
   H     93.33000000    54.97000000    79.09000000
   H     93.73000000    53.72000000    80.26000000
   N     89.36000000    52.52000000    79.05000000
   C     88.41000000    51.44000000    79.24000000
   C     88.24000000    50.72000000    80.57000000
   O     87.40000000    49.83000000    80.73000000
   H     89.85000000    52.51000000    78.17000000
   H     88.51000000    50.60000000    78.56000000
   H     87.39000000    51.81000000    79.11000000
   N     88.98000000    50.97000000    81.65000000
   C     88.77000000    50.49000000    83.00000000
   C     87.74000000    51.26000000    83.81000000
   O     87.63000000    52.47000000    83.63000000
   C     90.07000000    50.61000000    83.79000000
   C     91.28000000    49.81000000    83.39000000
   C     92.34000000    50.41000000    82.70000000
   C     91.38000000    48.48000000    83.83000000
   C     93.45000000    49.64000000    82.37000000
   C     92.43000000    47.68000000    83.38000000
   C     93.52000000    48.27000000    82.70000000
   O     94.59000000    47.54000000    82.28000000
   H     89.76000000    51.59000000    81.49000000
   H     88.48000000    49.44000000    83.06000000
   H     89.87000000    50.38000000    84.84000000
   H     90.38000000    51.65000000    83.91000000
   H     92.48000000    51.45000000    82.44000000
   H     90.61000000    48.08000000    84.47000000
   H     94.30000000    50.13000000    81.92000000
   H     92.38000000    46.65000000    83.69000000
   H     94.61000000    46.68000000    82.69000000
   N     86.97000000    50.52000000    84.62000000
   C     85.86000000    50.98000000    85.43000000
   C     86.02000000    52.07000000    86.48000000
   O     87.07000000    52.69000000    86.59000000
   C     84.56000000    51.11000000    84.64000000
   C     84.20000000    49.87000000    83.83000000
   C     84.61000000    52.38000000    83.79000000
   C     82.73000000    49.79000000    83.43000000
   H     87.30000000    49.59000000    84.84000000
   H     85.73000000    50.10000000    86.05000000
   H     83.73000000    51.17000000    85.34000000
   H     84.34000000    49.08000000    84.58000000
   H     84.86000000    49.76000000    82.97000000
   H     83.62000000    52.65000000    83.42000000
   H     84.97000000    53.15000000    84.48000000
   H     85.31000000    52.14000000    83.00000000
   H     82.55000000    48.77000000    83.09000000
   H     82.07000000    50.04000000    84.26000000
   H     82.40000000    50.47000000    82.65000000
   N     84.98000000    52.36000000    87.27000000
   C     84.93000000    53.44000000    88.23000000
   C     85.34000000    53.03000000    89.64000000
   O     85.56000000    53.89000000    90.48000000
   C     83.53000000    54.05000000    88.17000000
   O     82.57000000    53.02000000    88.24000000
   H     84.14000000    51.80000000    87.26000000
   H     85.55000000    54.29000000    87.96000000
   H     83.52000000    54.49000000    87.17000000
   H     83.42000000    54.82000000    88.94000000
   H     81.72000000    53.43000000    88.07000000
   N     85.41000000    51.72000000    89.89000000
   C     85.92000000    51.09000000    91.09000000
   C     85.36000000    51.70000000    92.37000000
   O     86.15000000    52.06000000    93.24000000
   C     87.43000000    50.96000000    90.94000000
   H     85.13000000    51.15000000    89.11000000
   H     85.60000000    50.06000000    91.25000000
   H     87.78000000    51.98000000    90.80000000
   H     87.86000000    50.50000000    91.84000000
   H     87.59000000    50.43000000    90.00000000
   N     84.05000000    51.83000000    92.58000000
   C     82.86000000    51.50000000    91.81000000
   C     82.05000000    50.34000000    92.37000000
   O     82.18000000    49.99000000    93.54000000
   C     82.14000000    52.84000000    91.78000000
   H     83.83000000    52.46000000    93.34000000
   H     83.16000000    51.28000000    90.79000000
   H     81.24000000    52.69000000    91.18000000
   H     81.78000000    53.05000000    92.79000000
   H     82.76000000    53.63000000    91.36000000
   N     81.12000000    49.74000000    91.62000000
   C     80.81000000    50.01000000    90.23000000
   C     80.81000000    48.73000000    89.40000000
   O     81.26000000    48.63000000    88.26000000
   C     79.47000000    50.75000000    90.14000000
   C     79.22000000    51.26000000    88.73000000
   C     77.98000000    52.14000000    88.63000000
   O     77.96000000    53.32000000    89.03000000
   O     76.96000000    51.64000000    88.12000000
   H     80.55000000    49.04000000    92.07000000
   H     81.62000000    50.59000000    89.79000000
   H     79.34000000    51.53000000    90.89000000
   H     78.62000000    50.13000000    90.43000000
   H     79.14000000    50.38000000    88.08000000
   H     80.11000000    51.79000000    88.39000000
   N     80.10000000    47.75000000    89.96000000
   C     79.97000000    46.43000000    89.38000000
   H     79.17800000    46.43900000    88.63100000
   H     80.91100000    46.14500000    88.90900000
   H     79.72200000    45.71200000    90.16200000
   H     79.70000000    47.95000000    90.87000000
  Ca     87.23000000    54.87000000    82.73000000
   O     87.11000000    55.67000000    85.39000000
   H     86.63000000    56.41000000    85.76000000
   H     87.49000000    55.23000000    86.15000000
   O     84.48000000    55.51000000    83.05000000
   H     83.90000000    55.25000000    82.33000000
   H     83.98000000    55.29000000    83.84000000
   O     89.93000000    54.83000000    83.69000000
   H     90.70000000    54.59000000    83.17000000
   H     90.13000000    54.53000000    84.57000000

Ca 1.00



