%chk=loop3.apoCaM-CA-Ng.Init31.run85.water6.chk
%nprocshared=20
%mem=10GB
%nosave
#b3lyp/svp scf=(tight,noincore,xqc) Test 
#IOP(5/87=12) Density=Current Pop=(MK,readradii) iop(6/33=2) iop(6/42=6)

loop3.apoCaM-CA-Ng.Init31.run85.water6 

   0  1 
   C     88.72000000    72.30000000    30.99000000
   C     88.44000000    71.17000000    30.02000000
   O     87.64000000    70.27000000    30.29000000
   H     89.55500000    72.89600000    30.62100000
   H     87.83500000    72.93100000    31.07900000
   H     88.97200000    71.88700000    31.96700000
   N     89.05000000    71.19000000    28.83000000
   C     89.44000000    70.07000000    28.00000000
   C     90.29000000    69.10000000    28.81000000
   O     90.77000000    69.39000000    29.91000000
   C     90.25000000    70.66000000    26.84000000
   C     91.59000000    71.31000000    27.18000000
   O     92.68000000    70.89000000    26.76000000
   O     91.54000000    72.33000000    27.90000000
   H     89.58000000    72.03000000    28.65000000
   H     88.57000000    69.51000000    27.67000000
   H     89.60000000    71.36000000    26.33000000
   H     90.49000000    69.77000000    26.25000000
   N     90.58000000    68.01000000    28.11000000
   C     91.79000000    67.23000000    28.26000000
   C     91.90000000    66.65000000    29.66000000
   O     92.96000000    66.63000000    30.28000000
   C     91.83000000    66.16000000    27.18000000
   C     93.01000000    65.18000000    27.27000000
   C     92.99000000    63.97000000    26.35000000
   C     94.28000000    63.18000000    26.12000000
   N     95.46000000    64.06000000    26.19000000
   H     90.10000000    67.88000000    27.22000000
   H     92.62000000    67.92000000    28.12000000
   H     91.94000000    66.72000000    26.25000000
   H     90.95000000    65.52000000    27.23000000
   H     92.87000000    64.73000000    28.26000000
   H     93.89000000    65.82000000    27.21000000
   H     92.60000000    64.31000000    25.39000000
   H     92.24000000    63.30000000    26.75000000
   H     94.28000000    62.74000000    25.13000000
   H     94.36000000    62.34000000    26.80000000
   H     95.34000000    64.91000000    25.67000000
   H     95.72000000    64.18000000    27.16000000
   H     96.26000000    63.61000000    25.77000000
   N     90.80000000    66.00000000    30.06000000
   C     90.62000000    65.26000000    31.29000000
   C     90.55000000    63.76000000    31.06000000
   O     89.46000000    63.20000000    30.99000000
   C     89.36000000    65.74000000    32.01000000
   C     88.11000000    65.81000000    31.15000000
   O     87.02000000    66.01000000    31.73000000
   O     88.08000000    65.75000000    29.90000000
   H     89.94000000    66.14000000    29.54000000
   H     91.46000000    65.36000000    31.97000000
   H     89.52000000    66.70000000    32.50000000
   H     89.15000000    65.11000000    32.88000000
   N     91.74000000    63.14000000    31.01000000
   C     91.96000000    61.78000000    30.57000000
   C     91.72000000    61.52000000    29.09000000
   O     91.03000000    62.34000000    28.49000000
   H     92.49000000    63.81000000    31.07000000
   H     91.47000000    61.00000000    31.14000000
   H     93.04000000    61.65000000    30.52000000
   N     92.22000000    60.46000000    28.45000000
   C     92.93000000    59.34000000    29.04000000
   C     91.93000000    58.53000000    29.87000000
   O     90.77000000    58.42000000    29.49000000
   C     93.55000000    58.47000000    27.95000000
   C     94.52000000    59.37000000    27.20000000
   N     94.20000000    59.76000000    25.97000000
   O     95.60000000    59.75000000    27.64000000
   H     91.74000000    60.29000000    27.58000000
   H     93.72000000    59.62000000    29.74000000
   H     92.75000000    58.04000000    27.34000000
   H     94.15000000    57.69000000    28.42000000
   H     93.34000000    59.49000000    25.50000000
   H     94.90000000    60.23000000    25.42000000
   N     92.31000000    57.78000000    30.91000000
   C     93.57000000    57.76000000    31.62000000
   C     93.39000000    58.70000000    32.81000000
   O     93.11000000    59.89000000    32.68000000
   H     91.57000000    57.21000000    31.30000000
   H     94.38000000    58.10000000    30.98000000
   H     93.76000000    56.71000000    31.84000000
   N     93.84000000    58.19000000    33.96000000
   C     93.46000000    58.83000000    35.21000000
   C     94.54000000    58.63000000    36.26000000
   O     94.58000000    57.60000000    36.94000000
   C     92.14000000    58.19000000    35.63000000
   C     91.03000000    58.36000000    34.62000000
   C     90.52000000    59.62000000    34.28000000
   C     90.67000000    57.20000000    33.92000000
   C     89.60000000    59.71000000    33.23000000
   C     89.80000000    57.29000000    32.83000000
   C     89.17000000    58.53000000    32.60000000
   O     88.25000000    58.73000000    31.61000000
   H     94.02000000    57.20000000    33.97000000
   H     93.34000000    59.88000000    34.96000000
   H     91.87000000    58.72000000    36.55000000
   H     92.41000000    57.16000000    35.83000000
   H     90.71000000    60.51000000    34.86000000
   H     91.17000000    56.29000000    34.22000000
   H     89.12000000    60.67000000    33.10000000
   H     89.43000000    56.43000000    32.29000000
   H     88.07000000    57.87000000    31.21000000
   N     95.47000000    59.57000000    36.43000000
   C     96.77000000    59.39000000    37.05000000
   C     97.28000000    60.54000000    37.90000000
   O     98.08000000    60.28000000    38.79000000
   C     97.84000000    59.05000000    36.02000000
   C     97.62000000    57.67000000    35.39000000
   C     97.87000000    60.08000000    34.89000000
   C     97.93000000    56.48000000    36.30000000
   H     95.38000000    60.45000000    35.94000000
   H     96.69000000    58.47000000    37.62000000
   H     98.81000000    59.04000000    36.51000000
   H     98.33000000    57.62000000    34.56000000
   H     96.65000000    57.66000000    34.90000000
   H     96.99000000    60.14000000    34.25000000
   H     98.09000000    61.05000000    35.34000000
   H     98.61000000    59.81000000    34.14000000
   H     97.67000000    55.55000000    35.79000000
   H     98.94000000    56.65000000    36.66000000
   H     97.25000000    56.59000000    37.14000000
   N     96.77000000    61.74000000    37.59000000
   C     97.37000000    62.92000000    38.19000000
   C     97.63000000    63.96000000    37.11000000
   O     98.38000000    64.91000000    37.33000000
   C     96.54000000    63.53000000    39.31000000
   O     95.39000000    64.25000000    38.95000000
   H     96.06000000    61.78000000    36.88000000
   H     98.31000000    62.68000000    38.69000000
   H     97.17000000    64.28000000    39.79000000
   H     96.28000000    62.73000000    40.01000000
   H     94.95000000    63.95000000    38.16000000
   N     97.13000000    63.78000000    35.89000000
   C     97.36000000    64.64000000    34.75000000
   C     96.30000000    65.73000000    34.61000000
   O     95.71000000    65.92000000    33.54000000
   C     97.77000000    63.76000000    33.57000000
   H     96.54000000    62.98000000    35.71000000
   H     98.20000000    65.31000000    34.92000000
   H     97.17000000    62.85000000    33.51000000
   H     97.53000000    64.29000000    32.65000000
   H     98.85000000    63.63000000    33.60000000
   N     96.00000000    66.46000000    35.68000000
   C     94.93000000    67.44000000    35.77000000
   C     93.56000000    66.98000000    35.29000000
   O     92.83000000    67.73000000    34.64000000
   C     95.39000000    68.74000000    35.13000000
   H     96.46000000    66.21000000    36.54000000
   H     94.73000000    67.68000000    36.82000000
   H     96.25000000    69.05000000    35.71000000
   H     95.58000000    68.60000000    34.06000000
   H     94.53000000    69.41000000    35.12000000
   N     93.18000000    65.71000000    35.47000000
   C     91.95000000    65.05000000    35.09000000
   C     90.98000000    64.79000000    36.24000000
   O     89.78000000    65.02000000    36.11000000
   C     92.32000000    63.81000000    34.28000000
   C     92.66000000    62.56000000    35.07000000
   C     94.02000000    62.67000000    35.75000000
   O     94.17000000    63.37000000    36.77000000
   O     94.99000000    62.00000000    35.31000000
   H     93.84000000    65.13000000    35.97000000
   H     91.42000000    65.69000000    34.38000000
   H     93.17000000    64.02000000    33.63000000
   H     91.45000000    63.54000000    33.68000000
   H     92.66000000    61.78000000    34.31000000
   H     91.92000000    62.28000000    35.82000000
   N     91.44000000    64.32000000    37.40000000
   C     90.71000000    64.15000000    38.64000000
   H     89.71300000    63.76600000    38.42400000
   H     91.24000000    63.44500000    39.28100000
   H     90.62600000    65.11100000    39.14800000
   H     92.44000000    64.18000000    37.41000000
  Ca     85.23000000    65.78000000    29.60000000
   O     83.35000000    63.94000000    29.59000000
   H     83.07000000    63.40000000    28.85000000
   H     82.99000000    63.51000000    30.36000000
   O     86.67000000    63.40000000    29.99000000
   H     87.61000000    63.26000000    29.85000000
   H     86.37000000    62.59000000    30.41000000
   O     86.79000000    66.70000000    27.59000000
   H     87.04000000    66.83000000    26.68000000
   H     87.62000000    66.67000000    28.06000000
   O     84.95000000    64.29000000    27.21000000
   H     84.74000000    63.49000000    26.73000000
   H     85.37000000    64.86000000    26.56000000
   O     85.69000000    68.46000000    30.48000000
   H     86.55000000    68.88000000    30.55000000
   H     85.10000000    69.18000000    30.26000000
   O     84.46000000    65.56000000    32.16000000
   H     85.36000000    65.52000000    32.50000000
   H     83.91000000    65.36000000    32.92000000

Ca 1.00



