%chk=loop1.apoCaM-CA-Ng.Init293.run24.water4.chk
%nprocshared=20
%mem=10GB
%nosave
#b3lyp/svp scf=(tight,noincore,xqc) Test 
#IOP(5/87=12) Density=Current Pop=(MK,readradii) iop(6/33=2) iop(6/42=6)

loop1.apoCaM-CA-Ng.Init293.run24.water4 

   0  1 
   C     60.57000000   -13.45000000    39.34000000
   C     61.13000000   -14.82000000    39.70000000
   O     60.42000000   -15.79000000    39.43000000
   H     59.62800000   -13.29400000    39.86500000
   H     61.28100000   -12.67800000    39.63300000
   H     60.39900000   -13.39800000    38.26500000
   N     62.26000000   -14.93000000    40.40000000
   C     62.82000000   -16.22000000    40.74000000
   C     62.85000000   -16.58000000    42.22000000
   O     63.77000000   -17.22000000    42.73000000
   C     64.25000000   -16.30000000    40.22000000
   C     65.17000000   -15.29000000    40.90000000
   O     66.31000000   -15.64000000    41.26000000
   O     64.82000000   -14.10000000    41.07000000
   H     62.87000000   -14.13000000    40.52000000
   H     62.29000000   -16.96000000    40.14000000
   H     64.37000000   -16.12000000    39.15000000
   H     64.57000000   -17.33000000    40.38000000
   N     61.89000000   -16.06000000    42.98000000
   C     61.77000000   -16.21000000    44.42000000
   C     60.37000000   -16.40000000    44.98000000
   O     59.59000000   -15.47000000    45.21000000
   C     62.37000000   -14.96000000    45.06000000
   C     63.81000000   -14.66000000    44.66000000
   C     64.47000000   -13.50000000    45.40000000
   C     65.87000000   -13.16000000    44.89000000
   N     65.81000000   -12.84000000    43.46000000
   H     61.15000000   -15.60000000    42.47000000
   H     62.38000000   -17.08000000    44.67000000
   H     62.27000000   -14.84000000    46.14000000
   H     61.85000000   -14.11000000    44.62000000
   H     63.77000000   -14.33000000    43.62000000
   H     64.39000000   -15.57000000    44.81000000
   H     64.55000000   -13.72000000    46.46000000
   H     63.86000000   -12.60000000    45.37000000
   H     66.50000000   -14.05000000    44.97000000
   H     66.40000000   -12.42000000    45.50000000
   H     66.60000000   -12.29000000    43.16000000
   H     65.73000000   -13.66000000    42.88000000
   H     65.06000000   -12.25000000    43.14000000
   N     59.83000000   -17.60000000    45.18000000
   C     60.33000000   -18.94000000    44.90000000
   C     61.42000000   -19.38000000    45.87000000
   O     62.13000000   -18.55000000    46.43000000
   C     60.66000000   -19.08000000    43.42000000
   C     59.79000000   -18.39000000    42.38000000
   O     60.12000000   -18.61000000    41.20000000
   O     58.78000000   -17.71000000    42.66000000
   H     58.87000000   -17.67000000    45.48000000
   H     59.44000000   -19.55000000    45.07000000
   H     60.61000000   -20.16000000    43.25000000
   H     61.72000000   -19.00000000    43.21000000
   N     61.75000000   -20.67000000    45.98000000
   C     61.10000000   -21.84000000    45.42000000
   C     62.00000000   -23.03000000    45.14000000
   O     62.70000000   -23.46000000    46.05000000
   H     62.65000000   -20.81000000    46.42000000
   H     60.58000000   -21.54000000    44.51000000
   H     60.28000000   -22.04000000    46.12000000
   N     62.13000000   -23.64000000    43.96000000
   C     61.45000000   -23.22000000    42.75000000
   C     62.08000000   -22.07000000    41.99000000
   O     61.56000000   -21.33000000    41.16000000
   C     61.21000000   -24.43000000    41.85000000
   C     60.70000000   -25.69000000    42.54000000
   O     59.52000000   -25.61000000    42.95000000
   O     61.33000000   -26.76000000    42.43000000
   H     62.90000000   -24.29000000    43.90000000
   H     60.45000000   -22.84000000    42.95000000
   H     62.16000000   -24.63000000    41.34000000
   H     60.57000000   -24.13000000    41.02000000
   N     63.35000000   -21.76000000    42.29000000
   C     64.00000000   -20.66000000    41.61000000
   C     64.35000000   -20.65000000    40.13000000
   O     64.95000000   -19.69000000    39.66000000
   H     63.78000000   -22.01000000    43.17000000
   H     64.84000000   -20.35000000    42.23000000
   H     63.41000000   -19.75000000    41.56000000
   N     63.97000000   -21.69000000    39.39000000
   C     63.98000000   -21.71000000    37.94000000
   C     62.99000000   -20.68000000    37.41000000
   O     61.84000000   -20.60000000    37.83000000
   C     63.55000000   -23.06000000    37.37000000
   C     64.67000000   -24.07000000    37.59000000
   O     63.31000000   -22.97000000    35.98000000
   H     63.39000000   -22.37000000    39.86000000
   H     64.96000000   -21.50000000    37.51000000
   H     62.70000000   -23.41000000    37.95000000
   H     63.97000000   -23.41000000    35.44000000
   H     64.78000000   -24.43000000    38.62000000
   H     64.50000000   -25.02000000    37.08000000
   H     65.57000000   -23.64000000    37.15000000
   N     63.52000000   -19.86000000    36.50000000
   C     62.82000000   -18.81000000    35.77000000
   C     63.03000000   -19.10000000    34.29000000
   O     63.80000000   -18.48000000    33.56000000
   C     63.23000000   -17.41000000    36.20000000
   C     62.54000000   -16.31000000    35.40000000
   C     64.72000000   -17.13000000    36.36000000
   C     62.32000000   -14.95000000    36.06000000
   H     64.49000000   -19.90000000    36.23000000
   H     61.76000000   -18.97000000    35.95000000
   H     62.87000000   -17.29000000    37.22000000
   H     61.61000000   -16.74000000    35.02000000
   H     63.15000000   -16.19000000    34.50000000
   H     64.93000000   -16.14000000    36.77000000
   H     65.22000000   -17.85000000    37.00000000
   H     65.08000000   -17.26000000    35.34000000
   H     62.28000000   -14.20000000    35.27000000
   H     61.48000000   -14.88000000    36.75000000
   H     63.21000000   -14.68000000    36.62000000
   N     62.24000000   -20.01000000    33.73000000
   C     62.22000000   -20.22000000    32.29000000
   C     60.87000000   -20.23000000    31.59000000
   O     60.72000000   -20.48000000    30.40000000
   C     62.87000000   -21.56000000    31.99000000
   C     62.08000000   -22.81000000    32.39000000
   O     64.11000000   -21.66000000    32.66000000
   H     61.53000000   -20.46000000    34.28000000
   H     62.81000000   -19.46000000    31.78000000
   H     63.05000000   -21.64000000    30.92000000
   H     64.57000000   -20.90000000    32.31000000
   H     62.66000000   -23.69000000    32.12000000
   H     61.92000000   -22.77000000    33.46000000
   H     61.20000000   -22.85000000    31.73000000
   N     59.85000000   -20.01000000    32.43000000
   C     58.42000000   -20.00000000    32.24000000
   C     57.78000000   -21.30000000    31.76000000
   O     58.53000000   -22.17000000    31.33000000
   C     58.02000000   -18.82000000    31.36000000
   C     58.29000000   -17.43000000    31.92000000
   O     56.75000000   -18.88000000    30.76000000
   H     60.18000000   -19.95000000    33.39000000
   H     57.97000000   -19.86000000    33.23000000
   H     58.72000000   -18.83000000    30.52000000
   H     56.68000000   -18.05000000    30.29000000
   H     59.38000000   -17.41000000    31.93000000
   H     57.90000000   -16.59000000    31.34000000
   H     58.08000000   -17.36000000    32.99000000
   N     56.47000000   -21.47000000    31.99000000
   C     55.74000000   -22.64000000    31.57000000
   C     54.90000000   -23.34000000    32.63000000
   O     54.50000000   -24.48000000    32.41000000
   C     54.94000000   -22.23000000    30.34000000
   C     55.68000000   -22.03000000    29.02000000
   C     56.43000000   -23.23000000    28.44000000
   C     57.08000000   -23.18000000    27.07000000
   N     56.07000000   -22.79000000    26.07000000
   H     55.92000000   -20.73000000    32.40000000
   H     56.44000000   -23.40000000    31.23000000
   H     54.37000000   -21.32000000    30.49000000
   H     54.28000000   -23.03000000    30.01000000
   H     56.40000000   -21.22000000    28.99000000
   H     54.91000000   -21.72000000    28.31000000
   H     55.76000000   -24.09000000    28.41000000
   H     57.20000000   -23.41000000    29.19000000
   H     57.38000000   -24.18000000    26.73000000
   H     57.93000000   -22.50000000    26.97000000
   H     55.25000000   -23.36000000    26.16000000
   H     55.68000000   -21.87000000    26.27000000
   H     56.40000000   -22.71000000    25.12000000
   N     54.64000000   -22.86000000    33.85000000
   C     54.92000000   -21.60000000    34.51000000
   C     54.46000000   -20.41000000    33.68000000
   O     55.17000000   -19.41000000    33.61000000
   C     56.24000000   -21.59000000    35.27000000
   C     56.16000000   -20.56000000    36.39000000
   C     57.32000000   -20.84000000    37.33000000
   O     58.46000000   -20.50000000    36.97000000
   O     57.14000000   -21.27000000    38.49000000
   H     53.95000000   -23.44000000    34.31000000
   H     54.22000000   -21.51000000    35.34000000
   H     57.05000000   -21.42000000    34.57000000
   H     56.47000000   -22.58000000    35.68000000
   H     55.25000000   -20.78000000    36.94000000
   H     56.15000000   -19.53000000    36.01000000
   N     53.28000000   -20.39000000    33.06000000
   C     52.64000000   -19.25000000    32.43000000
   H     51.71200000   -19.02000000    32.95300000
   H     53.30500000   -18.38800000    32.47600000
   H     52.42000000   -19.48600000    31.38900000
   H     52.73000000   -21.23000000    33.18000000
  Ca     59.59000000   -20.52300000    39.36000000
   O     59.61000000   -22.92300000    38.16000000
   H     59.02000000   -23.31300000    37.52000000
   H     60.22000000   -23.63300000    38.38000000
   O     59.91000000   -18.10300000    38.13000000
   H     59.75000000   -17.89300000    37.21000000
   H     60.08000000   -17.26300000    38.55000000
   O     57.37000000   -18.93300000    40.06000000
   H     56.45000000   -18.66300000    40.12000000
   H     57.85000000   -18.20300000    40.45000000
   O     58.62000000   -21.89300000    41.51000000
   H     58.19000000   -21.40300000    42.21000000
   H     58.18000000   -22.74300000    41.50000000

Ca 1.00



