%chk=loop4.apoCaM-CA-Ng.Init295.run7.water5.chk
%nprocshared=20
%mem=10GB
%nosave
#b3lyp/svp scf=(tight,noincore,xqc) Test 
#IOP(5/87=12) Density=Current Pop=(MK,readradii) iop(6/33=2) iop(6/42=6)

loop4.apoCaM-CA-Ng.Init295.run7.water5 

   -3  1 
   C     63.94000000    37.23000000    79.91000000
   C     64.37000000    37.70000000    81.29000000
   O     65.13000000    38.66000000    81.44000000
   H     63.07900000    37.81100000    79.58100000
   H     64.76100000    37.36800000    79.20600000
   H     63.67000000    36.17500000    79.95300000
   N     64.00000000    36.93000000    82.32000000
   C     64.41000000    37.16000000    83.69000000
   C     63.79000000    38.46000000    84.21000000
   O     64.36000000    39.16000000    85.04000000
   C     65.89000000    37.00000000    84.00000000
   C     66.57000000    35.90000000    83.19000000
   O     67.52000000    36.16000000    82.43000000
   O     66.20000000    34.71000000    83.35000000
   H     63.32000000    36.23000000    82.07000000
   H     63.87000000    36.35000000    84.18000000
   H     65.94000000    36.77000000    85.06000000
   H     66.34000000    37.96000000    83.76000000
   N     62.61000000    38.89000000    83.75000000
   C     61.92000000    40.08000000    84.21000000
   C     61.08000000    39.70000000    85.42000000
   O     60.38000000    38.70000000    85.47000000
   C     61.06000000    40.62000000    83.07000000
   C     61.87000000    41.00000000    81.83000000
   C     60.15000000    41.79000000    83.44000000
   C     62.87000000    42.15000000    81.90000000
   H     62.21000000    38.24000000    83.09000000
   H     62.64000000    40.79000000    84.62000000
   H     60.29000000    39.89000000    82.85000000
   H     61.18000000    41.32000000    81.05000000
   H     62.38000000    40.11000000    81.47000000
   H     59.49000000    41.91000000    82.58000000
   H     59.63000000    41.45000000    84.33000000
   H     60.73000000    42.71000000    83.57000000
   H     63.42000000    42.29000000    80.97000000
   H     62.40000000    43.13000000    82.01000000
   H     63.54000000    41.99000000    82.74000000
   N     61.03000000    40.48000000    86.51000000
   C     61.68000000    41.76000000    86.72000000
   C     63.16000000    41.62000000    87.04000000
   O     63.87000000    42.58000000    86.76000000
   C     60.91000000    42.58000000    87.76000000
   C     59.41000000    42.61000000    87.53000000
   O     58.70000000    41.88000000    88.24000000
   O     58.94000000    43.32000000    86.60000000
   H     60.37000000    40.18000000    87.20000000
   H     61.51000000    42.31000000    85.80000000
   H     61.26000000    43.61000000    87.72000000
   H     61.19000000    42.12000000    88.71000000
   N     63.63000000    40.56000000    87.70000000
   C     65.02000000    40.30000000    88.04000000
   C     65.65000000    41.15000000    89.14000000
   O     65.02000000    41.98000000    89.78000000
   H     63.01000000    39.77000000    87.72000000
   H     65.61000000    40.38000000    87.14000000
   H     65.16000000    39.25000000    88.29000000
   N     66.97000000    40.97000000    89.28000000
   C     67.80000000    41.68000000    90.23000000
   C     68.26000000    43.06000000    89.78000000
   O     68.90000000    43.84000000    90.49000000
   C     69.07000000    40.88000000    90.50000000
   C     69.75000000    40.31000000    89.26000000
   O     70.74000000    39.58000000    89.48000000
   O     69.35000000    40.54000000    88.10000000
   H     67.42000000    40.24000000    88.76000000
   H     67.35000000    41.90000000    91.20000000
   H     68.85000000    40.06000000    91.18000000
   H     69.75000000    41.48000000    91.10000000
   N     67.95000000    43.35000000    88.52000000
   C     68.26000000    44.56000000    87.78000000
   C     69.69000000    45.06000000    87.61000000
   O     69.89000000    46.20000000    87.19000000
   H     67.45000000    42.64000000    87.99000000
   H     67.64000000    45.40000000    88.11000000
   H     67.91000000    44.34000000    86.78000000
   N     70.73000000    44.41000000    88.14000000
   C     72.10000000    44.87000000    88.16000000
   C     72.78000000    45.09000000    86.81000000
   O     73.79000000    45.79000000    86.73000000
   C     72.41000000    45.92000000    89.23000000
   C     72.24000000    45.41000000    90.66000000
   C     72.67000000    46.35000000    91.77000000
   N     72.41000000    46.06000000    93.05000000
   O     73.19000000    47.43000000    91.49000000
   H     70.54000000    43.50000000    88.53000000
   H     72.65000000    43.99000000    88.47000000
   H     71.72000000    46.76000000    89.22000000
   H     73.42000000    46.30000000    89.12000000
   H     72.85000000    44.51000000    90.64000000
   H     71.23000000    45.03000000    90.84000000
   H     71.92000000    45.19000000    93.20000000
   H     72.57000000    46.71000000    93.80000000
   N     72.17000000    44.64000000    85.71000000
   C     72.60000000    44.93000000    84.36000000
   C     73.78000000    44.04000000    83.99000000
   O     73.79000000    42.85000000    84.28000000
   C     71.45000000    44.69000000    83.39000000
   C     70.04000000    45.01000000    83.90000000
   C     71.64000000    45.50000000    82.11000000
   H     71.44000000    43.95000000    85.85000000
   H     72.76000000    46.00000000    84.25000000
   H     71.51000000    43.62000000    83.19000000
   H     69.96000000    46.07000000    84.14000000
   H     69.35000000    44.75000000    83.10000000
   H     69.75000000    44.49000000    84.81000000
   H     72.66000000    45.44000000    81.74000000
   H     70.96000000    45.01000000    81.41000000
   H     71.40000000    46.52000000    82.39000000
   N     74.73000000    44.57000000    83.22000000
   C     75.79000000    43.78000000    82.61000000
   C     75.26000000    42.96000000    81.44000000
   O     74.12000000    43.15000000    81.01000000
   C     76.83000000    44.78000000    82.11000000
   C     78.12000000    44.05000000    81.78000000
   N     78.63000000    43.27000000    82.73000000
   O     78.49000000    43.89000000    80.62000000
   H     74.66000000    45.54000000    82.94000000
   H     76.18000000    43.13000000    83.39000000
   H     76.99000000    45.57000000    82.85000000
   H     76.47000000    45.29000000    81.21000000
   H     78.32000000    43.52000000    83.66000000
   H     79.49000000    42.79000000    82.52000000
   N     76.07000000    41.98000000    81.05000000
   C     75.76000000    41.25000000    79.83000000
   C     76.29000000    39.83000000    79.90000000
   O     77.28000000    39.61000000    80.60000000
   C     76.37000000    42.06000000    78.70000000
   C     76.67000000    41.22000000    77.48000000
   C     75.61000000    40.68000000    76.75000000
   C     78.01000000    40.90000000    77.20000000
   C     75.93000000    39.74000000    75.77000000
   C     78.32000000    39.99000000    76.18000000
   C     77.26000000    39.33000000    75.52000000
   O     77.63000000    38.27000000    74.75000000
   H     76.97000000    41.81000000    81.48000000
   H     74.67000000    41.28000000    79.72000000
   H     77.38000000    42.27000000    79.05000000
   H     75.70000000    42.90000000    78.49000000
   H     74.59000000    40.89000000    77.04000000
   H     78.80000000    41.37000000    77.76000000
   H     75.16000000    39.17000000    75.28000000
   H     79.35000000    39.93000000    75.87000000
   H     78.57000000    38.08000000    74.83000000
   N     75.58000000    38.87000000    79.31000000
   C     76.00000000    37.49000000    79.40000000
   C     75.99000000    36.69000000    78.10000000
   O     76.98000000    36.00000000    77.84000000
   C     75.13000000    36.84000000    80.48000000
   C     75.64000000    35.48000000    80.95000000
   C     76.96000000    35.37000000    81.70000000
   O     77.35000000    36.16000000    82.59000000
   O     77.60000000    34.32000000    81.45000000
   H     74.76000000    39.21000000    78.81000000
   H     76.99000000    37.41000000    79.84000000
   H     74.11000000    36.61000000    80.18000000
   H     75.20000000    37.57000000    81.28000000
   H     75.68000000    34.80000000    80.10000000
   H     74.88000000    35.05000000    81.61000000
   N     74.99000000    36.66000000    77.22000000
   C     73.60000000    36.97000000    77.46000000
   C     72.81000000    37.48000000    76.26000000
   O     73.21000000    37.25000000    75.13000000
   C     72.85000000    35.73000000    77.95000000
   C     72.86000000    34.60000000    76.93000000
   C     71.84000000    33.52000000    77.23000000
   O     72.19000000    32.35000000    77.51000000
   O     70.63000000    33.83000000    77.24000000
   H     75.27000000    36.18000000    76.38000000
   H     73.61000000    37.86000000    78.09000000
   H     71.79000000    35.93000000    78.09000000
   H     73.28000000    35.47000000    78.92000000
   H     73.85000000    34.13000000    76.97000000
   H     72.71000000    34.90000000    75.89000000
   N     71.61000000    38.03000000    76.50000000
   C     70.74000000    38.68000000    75.54000000
   H     69.84900000    39.04900000    76.04900000
   H     71.26700000    39.51600000    75.07900000
   H     70.44800000    37.96500000    74.77100000
   H     71.37000000    38.17000000    77.47000000
  Ca     67.64000000    33.80000000    81.23000000
   O     67.82000000    35.68000000    79.37000000
   H     67.98000000    35.53000000    78.44000000
   H     68.04000000    36.60000000    79.51000000
   O     69.04000000    33.13000000    83.70000000
   H     69.13000000    33.57000000    84.54000000
   H     69.44000000    32.27000000    83.84000000
   O     66.42000000    31.85000000    82.45000000
   H     66.78000000    30.97000000    82.35000000
   H     65.98000000    31.83000000    83.30000000
   O     70.03000000    34.05000000    80.06000000
   H     70.19000000    34.11000000    79.11000000
   H     70.89000000    34.21000000    80.45000000
   O     68.91000000    31.26000000    81.01000000
   H     68.71000000    30.38000000    81.33000000
   H     69.63000000    31.14000000    80.38000000

Ca 1.00



