%chk=loop3.holoCaM.run65.water2.chk
%nprocshared=20
%mem=10GB
%nosave
#b3lyp/svp scf=(tight,noincore,xqc) Test 
#IOP(5/87=12) Density=Current Pop=(MK,readradii) iop(6/33=2) iop(6/42=6)

loop3.holoCaM.run65.water2 

   0  1 
   C     65.68000000    58.33000000    25.74000000
   C     66.62000000    58.79000000    26.84000000
   O     67.44000000    57.99000000    27.29000000
   H     64.79600000    58.96800000    25.72800000
   H     66.18700000    58.39400000    24.77700000
   H     65.38000000    57.29900000    25.92500000
   N     66.45000000    60.05000000    27.25000000
   C     66.83000000    60.49000000    28.58000000
   C     65.76000000    60.03000000    29.57000000
   O     64.74000000    60.69000000    29.79000000
   C     67.35000000    61.92000000    28.63000000
   C     67.91000000    62.33000000    29.99000000
   O     67.96000000    63.57000000    30.08000000
   O     68.08000000    61.48000000    30.89000000
   H     65.77000000    60.63000000    26.78000000
   H     67.75000000    59.94000000    28.78000000
   H     66.40000000    62.42000000    28.48000000
   H     68.08000000    62.16000000    27.86000000
   N     66.04000000    58.90000000    30.22000000
   C     65.15000000    58.16000000    31.10000000
   C     65.27000000    58.63000000    32.54000000
   O     64.62000000    58.07000000    33.42000000
   C     65.42000000    56.67000000    30.93000000
   C     65.01000000    56.11000000    29.57000000
   C     64.93000000    54.59000000    29.55000000
   C     66.19000000    53.92000000    30.11000000
   N     66.03000000    52.47000000    29.96000000
   H     66.91000000    58.45000000    29.99000000
   H     64.10000000    58.32000000    30.85000000
   H     64.94000000    56.05000000    31.70000000
   H     66.45000000    56.44000000    31.20000000
   H     65.73000000    56.38000000    28.79000000
   H     64.02000000    56.46000000    29.28000000
   H     64.84000000    54.32000000    28.50000000
   H     64.03000000    54.18000000    30.00000000
   H     66.09000000    54.20000000    31.16000000
   H     67.09000000    54.32000000    29.64000000
   H     65.25000000    52.11000000    30.49000000
   H     65.82000000    52.10000000    29.04000000
   H     66.73000000    51.88000000    30.39000000
   N     65.95000000    59.77000000    32.73000000
   C     65.96000000    60.44000000    34.02000000
   C     65.80000000    61.95000000    33.92000000
   O     65.36000000    62.55000000    34.90000000
   C     67.22000000    60.03000000    34.76000000
   C     68.47000000    60.12000000    33.90000000
   O     68.84000000    59.14000000    33.23000000
   O     69.07000000    61.22000000    33.84000000
   H     66.26000000    60.26000000    31.91000000
   H     65.09000000    60.04000000    34.54000000
   H     67.09000000    59.05000000    35.21000000
   H     67.32000000    60.65000000    35.66000000
   N     66.07000000    62.55000000    32.76000000
   C     65.87000000    63.97000000    32.55000000
   C     67.03000000    64.79000000    33.10000000
   O     66.86000000    65.94000000    33.50000000
   H     66.43000000    61.96000000    32.03000000
   H     65.03000000    64.28000000    33.16000000
   H     65.69000000    64.22000000    31.50000000
   N     68.22000000    64.19000000    33.16000000
   C     69.40000000    64.96000000    33.48000000
   C     69.89000000    65.80000000    32.31000000
   O     70.63000000    66.75000000    32.60000000
   C     70.54000000    64.13000000    34.06000000
   C     71.20000000    63.08000000    33.17000000
   N     72.18000000    62.41000000    33.77000000
   O     70.96000000    62.77000000    32.01000000
   H     68.36000000    63.20000000    32.98000000
   H     69.23000000    65.71000000    34.26000000
   H     70.23000000    63.60000000    34.96000000
   H     71.37000000    64.78000000    34.36000000
   H     72.46000000    62.61000000    34.72000000
   H     72.53000000    61.57000000    33.34000000
   N     69.38000000    65.60000000    31.10000000
   C     69.71000000    66.36000000    29.91000000
   C     70.53000000    65.58000000    28.90000000
   O     71.01000000    66.17000000    27.94000000
   H     68.83000000    64.78000000    30.87000000
   H     70.17000000    67.33000000    30.12000000
   H     68.80000000    66.57000000    29.34000000
   N     70.82000000    64.31000000    29.18000000
   C     71.93000000    63.52000000    28.69000000
   C     71.58000000    62.05000000    28.55000000
   O     70.60000000    61.55000000    29.10000000
   C     73.14000000    63.67000000    29.61000000
   C     73.57000000    65.10000000    29.87000000
   C     73.41000000    65.57000000    31.18000000
   C     74.22000000    65.87000000    28.91000000
   C     73.80000000    66.86000000    31.56000000
   C     74.63000000    67.17000000    29.27000000
   C     74.31000000    67.68000000    30.54000000
   O     74.68000000    68.97000000    30.78000000
   H     70.21000000    63.78000000    29.79000000
   H     72.09000000    63.82000000    27.65000000
   H     74.00000000    63.20000000    29.13000000
   H     72.94000000    63.11000000    30.52000000
   H     72.82000000    64.96000000    31.85000000
   H     74.35000000    65.48000000    27.91000000
   H     73.69000000    67.22000000    32.57000000
   H     75.11000000    67.76000000    28.50000000
   H     74.88000000    69.41000000    29.95000000
   N     72.39000000    61.43000000    27.69000000
   C     72.39000000    60.01000000    27.38000000
   C     73.63000000    59.39000000    28.01000000
   O     74.77000000    59.69000000    27.67000000
   C     72.22000000    59.76000000    25.89000000
   C     71.04000000    60.46000000    25.23000000
   C     72.18000000    58.24000000    25.70000000
   C     69.69000000    60.42000000    25.94000000
   H     73.12000000    61.97000000    27.25000000
   H     71.51000000    59.60000000    27.87000000
   H     73.12000000    60.08000000    25.36000000
   H     70.88000000    60.06000000    24.22000000
   H     71.38000000    61.48000000    25.08000000
   H     73.13000000    57.72000000    25.82000000
   H     71.43000000    57.73000000    26.30000000
   H     71.91000000    58.12000000    24.65000000
   H     69.80000000    60.95000000    26.89000000
   H     68.86000000    60.70000000    25.29000000
   H     69.46000000    59.39000000    26.21000000
   N     73.46000000    58.30000000    28.77000000
   C     74.57000000    57.48000000    29.21000000
   C     74.73000000    56.22000000    28.37000000
   O     73.86000000    55.90000000    27.56000000
   C     74.34000000    57.11000000    30.67000000
   O     73.15000000    56.36000000    30.76000000
   H     72.55000000    58.24000000    29.19000000
   H     75.49000000    58.05000000    29.19000000
   H     74.26000000    58.02000000    31.27000000
   H     75.21000000    56.49000000    30.86000000
   H     72.42000000    56.88000000    30.42000000
   N     75.86000000    55.50000000    28.44000000
   C     76.06000000    54.21000000    27.82000000
   C     74.93000000    53.21000000    27.97000000
   O     74.53000000    52.56000000    27.01000000
   C     77.49000000    53.73000000    28.05000000
   H     76.52000000    55.84000000    29.13000000
   H     76.06000000    54.43000000    26.75000000
   H     77.80000000    53.04000000    27.27000000
   H     78.22000000    54.54000000    27.94000000
   H     77.58000000    53.26000000    29.02000000
   N     74.28000000    53.16000000    29.14000000
   C     73.15000000    52.29000000    29.42000000
   C     71.91000000    52.74000000    28.66000000
   O     71.17000000    51.86000000    28.21000000
   C     72.97000000    52.12000000    30.92000000
   H     74.75000000    53.62000000    29.91000000
   H     73.42000000    51.32000000    29.00000000
   H     73.86000000    51.62000000    31.28000000
   H     72.85000000    53.12000000    31.35000000
   H     72.13000000    51.48000000    31.19000000
   N     71.66000000    54.05000000    28.57000000
   C     70.53000000    54.55000000    27.82000000
   C     70.62000000    54.51000000    26.30000000
   O     69.63000000    54.31000000    25.60000000
   C     70.24000000    56.00000000    28.20000000
   C     69.62000000    56.29000000    29.56000000
   C     69.74000000    57.74000000    29.98000000
   O     68.72000000    58.46000000    30.07000000
   O     70.89000000    58.16000000    30.24000000
   H     72.27000000    54.55000000    29.20000000
   H     69.69000000    53.89000000    28.02000000
   H     69.53000000    56.43000000    27.50000000
   H     71.20000000    56.52000000    28.13000000
   H     70.10000000    55.71000000    30.35000000
   H     68.58000000    55.99000000    29.39000000
   N     71.84000000    54.62000000    25.77000000
   C     72.19000000    54.29000000    24.40000000
   H     73.22400000    53.94800000    24.36200000
   H     71.53300000    53.50000000    24.03700000
   H     72.07700000    55.17400000    23.77300000
   H     72.57000000    54.87000000    26.42000000
  Ca     70.28000000    60.24000000    31.45000000
   O     71.83000000    59.39000000    33.68000000
   H     72.56000000    59.50000000    34.29000000
   H     71.17000000    58.91000000    34.18000000
   O     73.03000000    60.55000000    31.16000000
   H     73.68000000    61.12000000    30.77000000
   H     73.46000000    60.19000000    31.94000000

Ca 1.00



