%chk=loop3.holoCaM.run70.water2.chk
%nprocshared=20
%mem=10GB
%nosave
#b3lyp/svp scf=(tight,noincore,xqc) Test 
#IOP(5/87=12) Density=Current Pop=(MK,readradii) iop(6/33=2) iop(6/42=6)

loop3.holoCaM.run70.water2 

   0  1 
   C     64.94000000    51.43000000    24.47000000
   C     65.23000000    52.06000000    25.83000000
   O     65.81000000    51.44000000    26.72000000
   H     64.13700000    51.98000000    23.97900000
   H     65.83700000    51.46900000    23.85200000
   H     64.63700000    50.39200000    24.60700000
   N     64.99000000    53.36000000    25.96000000
   C     65.00000000    53.99000000    27.27000000
   C     63.72000000    53.77000000    28.08000000
   O     62.60000000    53.62000000    27.60000000
   C     65.19000000    55.48000000    27.02000000
   C     65.16000000    56.32000000    28.28000000
   O     66.29000000    56.55000000    28.78000000
   O     64.09000000    56.79000000    28.72000000
   H     64.72000000    53.84000000    25.11000000
   H     65.82000000    53.59000000    27.86000000
   H     64.40000000    55.83000000    26.35000000
   H     66.07000000    55.67000000    26.41000000
   N     63.92000000    53.64000000    29.39000000
   C     62.84000000    53.10000000    30.21000000
   C     62.04000000    54.16000000    30.95000000
   O     60.95000000    53.83000000    31.41000000
   C     63.32000000    52.03000000    31.19000000
   C     63.98000000    50.80000000    30.58000000
   C     62.98000000    49.80000000    30.01000000
   C     63.53000000    48.74000000    29.06000000
   N     64.12000000    49.29000000    27.83000000
   H     64.84000000    53.78000000    29.77000000
   H     62.08000000    52.63000000    29.59000000
   H     62.46000000    51.58000000    31.68000000
   H     64.03000000    52.41000000    31.92000000
   H     64.59000000    50.40000000    31.40000000
   H     64.68000000    51.09000000    29.80000000
   H     62.22000000    50.39000000    29.49000000
   H     62.53000000    49.28000000    30.86000000
   H     62.71000000    48.11000000    28.73000000
   H     64.25000000    48.04000000    29.49000000
   H     63.44000000    49.82000000    27.30000000
   H     64.96000000    49.84000000    27.97000000
   H     64.35000000    48.54000000    27.19000000
   N     62.54000000    55.38000000    31.15000000
   C     62.01000000    56.36000000    32.07000000
   C     61.63000000    57.73000000    31.53000000
   O     60.96000000    58.53000000    32.17000000
   C     63.09000000    56.51000000    33.14000000
   C     64.46000000    56.98000000    32.69000000
   O     65.43000000    56.73000000    33.43000000
   O     64.69000000    57.32000000    31.51000000
   H     63.34000000    55.62000000    30.59000000
   H     61.12000000    55.96000000    32.55000000
   H     63.22000000    55.56000000    33.66000000
   H     62.71000000    57.25000000    33.85000000
   N     62.01000000    57.97000000    30.27000000
   C     61.75000000    59.14000000    29.45000000
   C     62.62000000    60.34000000    29.77000000
   O     62.12000000    61.46000000    29.63000000
   H     62.68000000    57.29000000    29.95000000
   H     60.69000000    59.39000000    29.40000000
   H     62.00000000    58.87000000    28.42000000
   N     63.77000000    60.14000000    30.42000000
   C     64.70000000    61.15000000    30.88000000
   C     65.76000000    61.68000000    29.92000000
   O     66.55000000    62.53000000    30.31000000
   C     65.39000000    60.87000000    32.21000000
   C     66.53000000    59.86000000    32.09000000
   N     67.30000000    59.73000000    33.17000000
   O     66.81000000    59.20000000    31.09000000
   H     64.13000000    59.20000000    30.37000000
   H     64.14000000    62.07000000    30.98000000
   H     64.62000000    60.45000000    32.86000000
   H     65.70000000    61.80000000    32.68000000
   H     67.03000000    60.19000000    34.03000000
   H     68.04000000    59.04000000    33.19000000
   N     65.79000000    61.38000000    28.62000000
   C     66.82000000    61.77000000    27.68000000
   C     68.27000000    61.34000000    27.90000000
   O     69.06000000    61.79000000    27.07000000
   H     65.15000000    60.68000000    28.27000000
   H     66.78000000    62.86000000    27.71000000
   H     66.44000000    61.53000000    26.69000000
   N     68.50000000    60.27000000    28.66000000
   C     69.77000000    59.57000000    28.73000000
   C     69.51000000    58.07000000    28.86000000
   O     68.79000000    57.62000000    29.75000000
   C     70.63000000    59.88000000    29.95000000
   C     70.75000000    61.37000000    30.16000000
   C     70.07000000    61.96000000    31.23000000
   C     71.52000000    62.12000000    29.26000000
   C     70.17000000    63.33000000    31.51000000
   C     71.63000000    63.48000000    29.58000000
   C     71.06000000    64.08000000    30.72000000
   O     71.13000000    65.44000000    30.89000000
   H     67.85000000    60.24000000    29.44000000
   H     70.35000000    59.74000000    27.83000000
   H     71.64000000    59.47000000    29.84000000
   H     70.21000000    59.49000000    30.88000000
   H     69.45000000    61.30000000    31.82000000
   H     71.99000000    61.58000000    28.45000000
   H     69.78000000    63.81000000    32.40000000
   H     72.24000000    64.09000000    28.93000000
   H     71.63000000    65.90000000    30.21000000
   N     70.38000000    57.28000000    28.23000000
   C     70.44000000    55.84000000    28.40000000
   C     71.62000000    55.55000000    29.32000000
   O     72.73000000    56.03000000    29.10000000
   C     70.51000000    55.11000000    27.07000000
   C     69.16000000    54.99000000    26.36000000
   C     71.30000000    53.81000000    27.13000000
   C     69.14000000    54.38000000    24.95000000
   H     71.11000000    57.71000000    27.68000000
   H     69.53000000    55.51000000    28.90000000
   H     71.20000000    55.66000000    26.43000000
   H     68.71000000    55.97000000    26.25000000
   H     68.49000000    54.40000000    26.98000000
   H     72.35000000    54.10000000    27.13000000
   H     70.88000000    53.11000000    27.86000000
   H     71.24000000    53.40000000    26.12000000
   H     69.15000000    53.30000000    24.90000000
   H     68.24000000    54.70000000    24.41000000
   H     69.94000000    54.82000000    24.36000000
   N     71.28000000    54.65000000    30.24000000
   C     72.15000000    53.97000000    31.19000000
   C     72.54000000    52.54000000    30.84000000
   O     71.93000000    51.95000000    29.95000000
   C     71.41000000    53.85000000    32.52000000
   O     70.23000000    53.08000000    32.50000000
   H     70.35000000    54.27000000    30.16000000
   H     73.09000000    54.51000000    31.25000000
   H     71.02000000    54.83000000    32.80000000
   H     72.14000000    53.51000000    33.25000000
   H     69.59000000    53.54000000    31.94000000
   N     73.55000000    51.94000000    31.47000000
   C     74.04000000    50.63000000    31.10000000
   C     72.95000000    49.57000000    31.14000000
   O     72.99000000    48.76000000    30.21000000
   C     75.14000000    50.19000000    32.06000000
   H     74.08000000    52.33000000    32.24000000
   H     74.57000000    50.63000000    30.15000000
   H     74.87000000    50.20000000    33.11000000
   H     75.38000000    49.18000000    31.71000000
   H     75.97000000    50.88000000    31.89000000
   N     71.93000000    49.57000000    32.00000000
   C     70.81000000    48.66000000    31.86000000
   C     69.99000000    48.93000000    30.61000000
   O     69.67000000    47.96000000    29.92000000
   C     69.95000000    48.74000000    33.12000000
   H     71.99000000    50.25000000    32.74000000
   H     71.29000000    47.68000000    31.80000000
   H     70.51000000    48.79000000    34.06000000
   H     69.38000000    49.67000000    33.03000000
   H     69.28000000    47.88000000    33.14000000
   N     69.75000000    50.18000000    30.20000000
   C     69.02000000    50.48000000    28.99000000
   C     69.91000000    50.28000000    27.77000000
   O     69.39000000    49.75000000    26.79000000
   C     68.48000000    51.91000000    29.05000000
   C     67.72000000    52.19000000    30.34000000
   C     67.50000000    53.68000000    30.54000000
   O     66.33000000    54.12000000    30.65000000
   O     68.51000000    54.40000000    30.63000000
   H     70.28000000    50.83000000    30.75000000
   H     68.23000000    49.74000000    28.87000000
   H     67.83000000    52.04000000    28.19000000
   H     69.25000000    52.68000000    29.12000000
   H     68.16000000    51.67000000    31.19000000
   H     66.73000000    51.73000000    30.36000000
   N     71.24000000    50.38000000    27.87000000
   C     72.10000000    50.06000000    26.76000000
   H     73.06800000    49.72700000    27.13500000
   H     71.64800000    49.26500000    26.16700000
   H     72.23600000    50.94500000    26.13800000
   H     71.66000000    50.85000000    28.66000000
  Ca     67.18000000    56.49000000    31.34000000
   O     68.94000000    57.45000000    32.88000000
   H     69.80000000    57.58000000    32.48000000
   H     69.13000000    57.13000000    33.76000000
   O     67.53000000    54.86000000    33.55000000
   H     66.58000000    54.99000000    33.56000000
   H     67.68000000    54.13000000    34.16000000

Ca 1.00



