%chk=loop2.apoCaM-CA-Ng.Init31.run22.water4.chk
%nprocshared=20
%mem=10GB
%nosave
#b3lyp/svp scf=(tight,noincore,xqc) Test 
#IOP(5/87=12) Density=Current Pop=(MK,readradii) iop(6/33=2) iop(6/42=6)

loop2.apoCaM-CA-Ng.Init31.run22.water4 

   -2  1 
   C     86.56000000    54.06000000   -23.25000000
   C     85.33000000    53.78000000   -22.39000000
   O     85.49000000    53.03000000   -21.43000000
   H     87.40800000    53.49300000   -22.86600000
   H     86.36000000    53.76100000   -24.27900000
   H     86.79100000    55.12500000   -23.21900000
   N     84.06000000    54.01000000   -22.70000000
   C     83.50000000    55.06000000   -23.53000000
   C     82.35000000    54.61000000   -24.42000000
   O     81.45000000    53.93000000   -23.93000000
   C     82.93000000    56.15000000   -22.63000000
   C     82.00000000    55.80000000   -21.47000000
   O     81.54000000    56.65000000   -20.69000000
   O     81.72000000    54.60000000   -21.25000000
   H     83.37000000    53.45000000   -22.22000000
   H     84.35000000    55.36000000   -24.13000000
   H     82.30000000    56.68000000   -23.34000000
   H     83.68000000    56.88000000   -22.32000000
   N     82.34000000    55.07000000   -25.67000000
   C     81.36000000    54.87000000   -26.72000000
   C     80.02000000    55.52000000   -26.39000000
   O     79.59000000    56.51000000   -26.97000000
   C     81.41000000    53.41000000   -27.19000000
   H     83.12000000    55.63000000   -25.98000000
   H     81.70000000    55.32000000   -27.65000000
   H     81.23000000    52.74000000   -26.35000000
   H     80.68000000    53.20000000   -27.98000000
   H     82.38000000    53.20000000   -27.64000000
   N     79.28000000    54.91000000   -25.46000000
   C     78.17000000    55.60000000   -24.83000000
   C     78.39000000    55.90000000   -23.36000000
   O     78.99000000    55.10000000   -22.66000000
   C     76.88000000    54.79000000   -24.99000000
   C     77.03000000    53.33000000   -24.60000000
   O     78.05000000    52.86000000   -24.05000000
   O     76.08000000    52.57000000   -24.87000000
   H     79.50000000    53.97000000   -25.18000000
   H     77.90000000    56.54000000   -25.30000000
   H     76.52000000    54.77000000   -26.02000000
   H     76.14000000    55.30000000   -24.37000000
   N     77.90000000    57.07000000   -22.93000000
   C     77.97000000    57.61000000   -21.59000000
   C     76.95000000    57.13000000   -20.57000000
   O     76.06000000    57.93000000   -20.27000000
   H     77.27000000    57.54000000   -23.57000000
   H     77.85000000    58.69000000   -21.71000000
   H     78.98000000    57.51000000   -21.19000000
   N     76.99000000    55.86000000   -20.17000000
   C     76.06000000    55.24000000   -19.26000000
   C     76.17000000    55.85000000   -17.87000000
   O     75.26000000    55.67000000   -17.06000000
   C     76.27000000    53.73000000   -19.22000000
   C     76.42000000    53.10000000   -20.60000000
   N     75.26000000    52.91000000   -21.23000000
   O     77.51000000    53.05000000   -21.17000000
   H     77.87000000    55.38000000   -20.26000000
   H     75.03000000    55.34000000   -19.61000000
   H     75.41000000    53.27000000   -18.73000000
   H     77.18000000    53.51000000   -18.66000000
   H     74.42000000    53.25000000   -20.78000000
   H     75.16000000    52.48000000   -22.14000000
   N     77.29000000    56.47000000   -17.48000000
   C     77.61000000    57.04000000   -16.19000000
   C     78.31000000    55.99000000   -15.35000000
   O     78.48000000    54.85000000   -15.76000000
   H     78.01000000    56.58000000   -18.18000000
   H     76.76000000    57.45000000   -15.64000000
   H     78.28000000    57.88000000   -16.40000000
   N     78.71000000    56.19000000   -14.09000000
   C     78.94000000    57.42000000   -13.36000000
   C     80.43000000    57.56000000   -13.05000000
   O     80.81000000    58.71000000   -12.87000000
   C     78.10000000    57.43000000   -12.08000000
   C     78.03000000    58.79000000   -11.39000000
   O     76.81000000    56.91000000   -12.26000000
   H     78.85000000    55.37000000   -13.52000000
   H     78.61000000    58.22000000   -14.03000000
   H     78.55000000    56.72000000   -11.38000000
   H     76.27000000    57.63000000   -12.60000000
   H     78.93000000    58.93000000   -10.79000000
   H     78.06000000    59.61000000   -12.11000000
   H     77.14000000    58.86000000   -10.76000000
   N     81.19000000    56.48000000   -12.83000000
   C     82.50000000    56.39000000   -12.22000000
   C     82.42000000    56.84000000   -10.76000000
   O     82.27000000    58.03000000   -10.50000000
   C     83.68000000    56.96000000   -13.00000000
   C     83.89000000    56.22000000   -14.33000000
   C     84.90000000    56.85000000   -12.09000000
   C     84.68000000    57.12000000   -15.28000000
   H     80.62000000    55.67000000   -13.01000000
   H     82.81000000    55.35000000   -12.23000000
   H     83.55000000    58.02000000   -13.22000000
   H     82.93000000    55.96000000   -14.77000000
   H     84.44000000    55.31000000   -14.11000000
   H     84.88000000    57.66000000   -11.37000000
   H     84.98000000    55.87000000   -11.61000000
   H     85.80000000    56.99000000   -12.68000000
   H     85.62000000    57.52000000   -14.90000000
   H     84.90000000    56.62000000   -16.21000000
   H     84.07000000    57.95000000   -15.62000000
   N     82.38000000    55.95000000    -9.77000000
   C     82.41000000    54.51000000    -9.87000000
   C     83.79000000    53.92000000    -9.64000000
   O     84.33000000    53.19000000   -10.47000000
   C     81.25000000    53.86000000    -9.11000000
   C     81.11000000    54.40000000    -7.70000000
   O     79.95000000    54.21000000    -7.25000000
   O     82.05000000    54.91000000    -7.06000000
   H     82.29000000    56.33000000    -8.84000000
   H     82.23000000    54.14000000   -10.88000000
   H     81.47000000    52.80000000    -9.13000000
   H     80.37000000    54.17000000    -9.69000000
   N     84.38000000    54.10000000    -8.46000000
   C     85.55000000    53.39000000    -7.98000000
   C     85.30000000    52.58000000    -6.72000000
   O     84.38000000    52.87000000    -5.96000000
   C     86.58000000    54.51000000    -7.91000000
   C     86.52000000    55.35000000    -6.66000000
   C     86.03000000    56.66000000    -6.75000000
   C     87.05000000    54.95000000    -5.43000000
   C     86.00000000    57.54000000    -5.66000000
   C     87.01000000    55.80000000    -4.31000000
   C     86.52000000    57.11000000    -4.43000000
   H     83.88000000    54.56000000    -7.71000000
   H     85.88000000    52.71000000    -8.77000000
   H     86.51000000    55.19000000    -8.77000000
   H     87.59000000    54.10000000    -7.90000000
   H     85.52000000    57.02000000    -7.63000000
   H     87.40000000    53.95000000    -5.23000000
   H     85.61000000    58.54000000    -5.80000000
   H     87.28000000    55.49000000    -3.32000000
   H     86.58000000    57.82000000    -3.62000000
   N     86.18000000    51.61000000    -6.45000000
   C     87.40000000    51.20000000    -7.11000000
   C     87.26000000    50.45000000    -8.43000000
   O     86.29000000    49.73000000    -8.61000000
   C     88.26000000    50.45000000    -6.09000000
   C     87.15000000    49.78000000    -5.29000000
   C     86.12000000    50.90000000    -5.19000000
   H     88.00000000    52.05000000    -7.44000000
   H     88.99000000    49.82000000    -6.60000000
   H     88.82000000    51.16000000    -5.48000000
   H     86.74000000    49.02000000    -5.96000000
   H     87.50000000    49.51000000    -4.30000000
   H     85.14000000    50.48000000    -4.98000000
   H     86.32000000    51.65000000    -4.42000000
   N     88.30000000    50.41000000    -9.28000000
   C     88.38000000    49.74000000   -10.56000000
   C     89.27000000    50.40000000   -11.60000000
   O     90.00000000    49.69000000   -12.29000000
   C     88.75000000    48.28000000   -10.38000000
   C     89.68000000    47.96000000    -9.21000000
   C     91.09000000    48.49000000    -9.49000000
   O     91.94000000    47.81000000   -10.10000000
   O     91.42000000    49.54000000    -8.91000000
   H     89.08000000    51.01000000    -9.07000000
   H     87.36000000    49.72000000   -10.95000000
   H     89.05000000    47.86000000   -11.34000000
   H     87.82000000    47.75000000   -10.18000000
   H     89.79000000    46.89000000    -9.10000000
   H     89.35000000    48.40000000    -8.27000000
   N     89.28000000    51.71000000   -11.88000000
   C     88.75000000    52.82000000   -11.12000000
   H     87.75000000    52.57100000   -10.76400000
   H     89.39900000    53.02100000   -10.26800000
   H     88.69900000    53.70500000   -11.75500000
   H     89.88000000    52.00000000   -12.65000000
  Ca     79.97000000    52.72000000   -22.18800000
   O     79.99000000    53.16000000   -19.35800000
   H     80.67000000    53.11000000   -18.68800000
   H     79.70000000    54.07000000   -19.33800000
   O     82.55000000    51.63000000   -21.45800000
   H     83.18000000    51.13000000   -21.98800000
   H     82.63000000    51.26000000   -20.57800000
   O     81.02000000    50.90000000   -24.01800000
   H     81.96000000    50.76000000   -24.15800000
   H     80.61000000    50.62000000   -24.82800000
   O     79.37000000    50.27000000   -21.14800000
   H     78.60000000    49.90000000   -21.57800000
   H     79.89000000    49.51000000   -20.87800000

Ca 1.00



