%chk=loop3.apoCaM-CA-Ng.Init31.run73.water6.chk
%nprocshared=20
%mem=10GB
%nosave
#b3lyp/svp scf=(tight,noincore,xqc) Test 
#IOP(5/87=12) Density=Current Pop=(MK,readradii) iop(6/33=2) iop(6/42=6)

loop3.apoCaM-CA-Ng.Init31.run73.water6 

   0  1 
   C    104.18000000    54.79000000    37.42000000
   C    103.83000000    55.04000000    35.96000000
   O    103.38000000    54.09000000    35.33000000
   H    105.00400000    55.44100000    37.71200000
   H    103.31100000    55.00100000    38.04400000
   H    104.47700000    53.74900000    37.55000000
   N    103.81000000    56.27000000    35.45000000
   C    103.59000000    56.69000000    34.08000000
   C    104.84000000    56.76000000    33.21000000
   O    105.96000000    56.53000000    33.67000000
   C    102.93000000    58.06000000    34.02000000
   C    103.63000000    59.13000000    34.85000000
   O    102.91000000    60.14000000    34.97000000
   O    104.68000000    58.96000000    35.52000000
   H    104.10000000    57.01000000    36.08000000
   H    102.89000000    56.01000000    33.59000000
   H    101.91000000    57.92000000    34.37000000
   H    102.83000000    58.45000000    33.01000000
   N    104.60000000    56.91000000    31.91000000
   C    105.67000000    57.02000000    30.94000000
   C    106.52000000    55.77000000    30.76000000
   O    107.71000000    55.85000000    30.44000000
   C    105.01000000    57.46000000    29.64000000
   C    105.85000000    57.58000000    28.37000000
   C    105.24000000    58.27000000    27.16000000
   C    104.98000000    59.75000000    27.42000000
   N    104.01000000    60.34000000    26.49000000
   H    103.66000000    57.08000000    31.58000000
   H    106.31000000    57.86000000    31.21000000
   H    104.60000000    58.46000000    29.81000000
   H    104.25000000    56.70000000    29.48000000
   H    106.05000000    56.54000000    28.10000000
   H    106.74000000    58.10000000    28.72000000
   H    104.39000000    57.59000000    27.17000000
   H    105.75000000    58.06000000    26.22000000
   H    105.99000000    60.17000000    27.50000000
   H    104.49000000    59.88000000    28.39000000
   H    104.39000000    60.43000000    25.56000000
   H    103.12000000    59.85000000    26.45000000
   H    103.60000000    61.17000000    26.88000000
   N    105.90000000    54.60000000    30.90000000
   C    106.64000000    53.36000000    31.10000000
   C    106.94000000    52.73000000    29.75000000
   O    106.17000000    51.88000000    29.31000000
   C    105.82000000    52.45000000    32.01000000
   C    104.38000000    52.18000000    31.59000000
   O    103.92000000    51.03000000    31.79000000
   O    103.65000000    53.13000000    31.25000000
   H    104.90000000    54.58000000    31.04000000
   H    107.52000000    53.54000000    31.71000000
   H    105.82000000    52.78000000    33.05000000
   H    106.25000000    51.46000000    31.95000000
   N    107.94000000    53.21000000    29.00000000
   C    108.10000000    53.02000000    27.57000000
   C    106.95000000    53.48000000    26.68000000
   O    105.98000000    54.08000000    27.15000000
   H    108.63000000    53.76000000    29.48000000
   H    108.36000000    51.97000000    27.45000000
   H    109.03000000    53.48000000    27.25000000
   N    106.93000000    53.12000000    25.40000000
   C    107.91000000    52.32000000    24.69000000
   C    107.24000000    51.21000000    23.90000000
   O    106.14000000    51.45000000    23.40000000
   C    108.59000000    53.29000000    23.71000000
   C    109.50000000    54.19000000    24.52000000
   N    109.16000000    55.47000000    24.73000000
   O    110.51000000    53.74000000    25.06000000
   H    106.05000000    53.34000000    24.95000000
   H    108.73000000    51.89000000    25.26000000
   H    107.85000000    53.86000000    23.14000000
   H    109.18000000    52.71000000    23.00000000
   H    108.30000000    55.91000000    24.45000000
   H    109.84000000    56.00000000    25.26000000
   N    107.79000000    50.05000000    23.53000000
   C    109.05000000    49.59000000    24.08000000
   C    108.95000000    49.21000000    25.55000000
   O    108.11000000    49.67000000    26.32000000
   H    107.31000000    49.43000000    22.90000000
   H    109.78000000    50.40000000    24.05000000
   H    109.34000000    48.77000000    23.43000000
   N    109.86000000    48.27000000    25.82000000
   C    109.93000000    47.47000000    27.03000000
   C    111.33000000    47.38000000    27.63000000
   O    111.53000000    46.51000000    28.48000000
   C    109.28000000    46.12000000    26.74000000
   C    107.88000000    46.22000000    26.19000000
   C    106.89000000    46.85000000    26.96000000
   C    107.55000000    45.75000000    24.92000000
   C    105.64000000    47.08000000    26.39000000
   C    106.33000000    46.08000000    24.32000000
   C    105.34000000    46.77000000    25.04000000
   O    104.07000000    46.90000000    24.55000000
   H    110.47000000    48.05000000    25.05000000
   H    109.32000000    48.01000000    27.76000000
   H    109.31000000    45.56000000    27.67000000
   H    109.93000000    45.64000000    26.01000000
   H    106.96000000    47.32000000    27.93000000
   H    108.26000000    45.17000000    24.35000000
   H    104.94000000    47.67000000    26.96000000
   H    106.12000000    45.64000000    23.35000000
   H    104.03000000    46.72000000    23.61000000
   N    112.33000000    48.15000000    27.21000000
   C    113.71000000    48.13000000    27.67000000
   C    114.27000000    49.51000000    28.00000000
   O    114.84000000    50.18000000    27.14000000
   C    114.61000000    47.38000000    26.69000000
   C    115.98000000    47.14000000    27.30000000
   C    113.93000000    46.10000000    26.20000000
   C    116.96000000    46.64000000    26.24000000
   H    112.06000000    48.90000000    26.59000000
   H    113.62000000    47.67000000    28.65000000
   H    114.81000000    48.16000000    25.96000000
   H    115.89000000    46.45000000    28.14000000
   H    116.36000000    48.11000000    27.61000000
   H    114.60000000    45.55000000    25.54000000
   H    113.47000000    45.49000000    26.99000000
   H    113.01000000    46.23000000    25.64000000
   H    117.97000000    46.49000000    26.62000000
   H    116.65000000    45.70000000    25.78000000
   H    116.97000000    47.35000000    25.42000000
   N    114.12000000    50.03000000    29.22000000
   C    114.97000000    51.08000000    29.73000000
   C    114.44000000    52.51000000    29.61000000
   O    115.19000000    53.42000000    29.97000000
   C    115.26000000    50.77000000    31.19000000
   O    114.06000000    50.80000000    31.92000000
   H    113.53000000    49.58000000    29.90000000
   H    115.91000000    51.15000000    29.19000000
   H    115.90000000    51.51000000    31.66000000
   H    115.80000000    49.82000000    31.12000000
   H    113.33000000    50.45000000    31.39000000
   N    113.20000000    52.62000000    29.14000000
   C    112.47000000    53.88000000    29.17000000
   C    111.56000000    54.01000000    30.39000000
   O    110.39000000    54.37000000    30.39000000
   C    111.67000000    54.15000000    27.90000000
   H    112.64000000    51.83000000    28.85000000
   H    113.24000000    54.65000000    29.27000000
   H    110.93000000    53.37000000    27.72000000
   H    111.17000000    55.09000000    28.10000000
   H    112.39000000    54.28000000    27.09000000
   N    112.10000000    53.60000000    31.55000000
   C    111.38000000    53.61000000    32.81000000
   C    110.13000000    52.75000000    32.94000000
   O    109.10000000    53.17000000    33.47000000
   C    111.31000000    55.05000000    33.30000000
   H    113.05000000    53.26000000    31.59000000
   H    112.11000000    53.14000000    33.47000000
   H    110.25000000    55.25000000    33.49000000
   H    111.92000000    55.16000000    34.19000000
   H    111.66000000    55.79000000    32.57000000
   N    110.31000000    51.51000000    32.48000000
   C    109.24000000    50.54000000    32.56000000
   C    109.69000000    49.27000000    33.27000000
   O    108.89000000    48.75000000    34.04000000
   C    108.73000000    50.23000000    31.15000000
   C    109.52000000    49.39000000    30.16000000
   C    110.85000000    50.01000000    29.75000000
   O    111.81000000    49.97000000    30.54000000
   O    110.90000000    50.56000000    28.62000000
   H    111.22000000    51.27000000    32.11000000
   H    108.40000000    51.02000000    33.05000000
   H    108.61000000    51.19000000    30.65000000
   H    107.79000000    49.73000000    31.38000000
   H    108.98000000    49.30000000    29.22000000
   H    109.71000000    48.37000000    30.50000000
   N    110.97000000    48.93000000    33.04000000
   C    111.46000000    47.72000000    33.65000000
   H    112.38700000    47.93200000    34.18300000
   H    110.71700000    47.33900000    34.35100000
   H    111.64900000    46.97400000    32.87800000
   H    111.41000000    49.26000000    32.20000000
  Ca    101.22200000    52.19000000    31.49000000
   O    101.30200000    54.78000000    32.22000000
   H    101.79200000    55.50000000    31.81000000
   H    100.41200000    54.85000000    31.86000000
   O    102.35200000    51.03000000    29.25000000
   H    102.67200000    50.88000000    28.36000000
   H    102.23200000    50.16000000    29.62000000
   O     99.29000000    50.86000000    30.01000000
   H     98.57000000    51.42000000    29.71000000
   H     98.94000000    49.97000000    29.95000000
   O    102.11200000    52.18000000    33.92000000
   H    102.61200000    52.92000000    34.25000000
   H    102.18200000    51.52000000    34.61000000
   O    100.91200000    53.66000000    29.19000000
   H    101.72200000    54.05000000    28.86000000
   H    100.21200000    54.15000000    28.77000000
   O    101.11200000    49.59000000    32.10000000
   H    102.01200000    49.47000000    32.43000000
   H    100.80200000    48.69000000    31.95000000

Ca 1.00



