%chk=loop3.holoCaM.run66.water1.chk
%nprocshared=20
%mem=10GB
%nosave
#b3lyp/svp scf=(tight,noincore,xqc) Test 
#IOP(5/87=12) Density=Current Pop=(MK,readradii) iop(6/33=2) iop(6/42=6)

loop3.holoCaM.run66.water1 

   0  1 
   C     61.92000000    61.34000000    24.27000000
   C     62.72000000    61.43000000    25.56000000
   O     63.73000000    60.74000000    25.68000000
   H     61.02500000    61.95600000    24.35500000
   H     62.52800000    61.69700000    23.43900000
   H     61.63200000    60.30400000    24.09200000
   N     62.33000000    62.30000000    26.49000000
   C     62.91000000    62.32000000    27.81000000
   C     62.75000000    60.98000000    28.52000000
   O     61.65000000    60.42000000    28.50000000
   C     62.26000000    63.50000000    28.53000000
   C     62.86000000    63.99000000    29.84000000
   O     62.13000000    64.73000000    30.53000000
   O     63.94000000    63.46000000    30.18000000
   H     61.56000000    62.93000000    26.30000000
   H     63.98000000    62.53000000    27.71000000
   H     61.21000000    63.38000000    28.81000000
   H     62.32000000    64.33000000    27.82000000
   N     63.85000000    60.49000000    29.07000000
   C     63.86000000    59.21000000    29.76000000
   C     63.50000000    59.40000000    31.23000000
   O     62.50000000    58.85000000    31.71000000
   C     65.16000000    58.47000000    29.51000000
   C     65.20000000    57.84000000    28.12000000
   C     66.37000000    56.87000000    28.07000000
   C     66.52000000    56.10000000    26.76000000
   N     67.75000000    55.28000000    26.74000000
   H     64.69000000    60.99000000    28.81000000
   H     63.09000000    58.57000000    29.33000000
   H     65.28000000    57.63000000    30.20000000
   H     66.07000000    59.05000000    29.65000000
   H     65.44000000    58.63000000    27.40000000
   H     64.25000000    57.35000000    27.88000000
   H     66.29000000    56.15000000    28.88000000
   H     67.23000000    57.45000000    28.39000000
   H     66.49000000    56.75000000    25.89000000
   H     65.70000000    55.41000000    26.57000000
   H     68.51000000    55.80000000    27.15000000
   H     67.59000000    54.41000000    27.22000000
   H     67.99000000    54.95000000    25.81000000
   N     64.36000000    60.02000000    32.03000000
   C     64.20000000    60.21000000    33.46000000
   C     63.15000000    61.24000000    33.87000000
   O     62.78000000    61.31000000    35.04000000
   C     65.57000000    60.70000000    33.91000000
   C     66.08000000    61.84000000    33.03000000
   O     65.56000000    62.97000000    33.11000000
   O     67.10000000    61.69000000    32.33000000
   H     65.12000000    60.46000000    31.54000000
   H     64.04000000    59.24000000    33.93000000
   H     66.26000000    59.86000000    33.87000000
   H     65.50000000    61.10000000    34.92000000
   N     62.63000000    62.07000000    32.96000000
   C     61.59000000    63.04000000    33.24000000
   C     61.94000000    64.43000000    33.74000000
   O     60.96000000    65.12000000    34.05000000
   H     63.09000000    62.08000000    32.07000000
   H     60.92000000    62.54000000    33.94000000
   H     60.90000000    63.13000000    32.39000000
   N     63.21000000    64.84000000    33.75000000
   C     63.71000000    66.09000000    34.30000000
   C     63.29000000    67.25000000    33.42000000
   O     63.58000000    68.38000000    33.78000000
   C     65.21000000    65.92000000    34.49000000
   C     66.08000000    66.22000000    33.27000000
   N     67.18000000    66.96000000    33.41000000
   O     65.80000000    65.81000000    32.15000000
   H     63.77000000    64.23000000    33.18000000
   H     63.15000000    66.21000000    35.23000000
   H     65.44000000    64.90000000    34.81000000
   H     65.44000000    66.65000000    35.26000000
   H     67.45000000    67.33000000    34.31000000
   H     67.58000000    67.38000000    32.58000000
   N     62.76000000    67.11000000    32.20000000
   C     62.22000000    68.04000000    31.22000000
   C     63.11000000    68.26000000    30.01000000
   O     62.68000000    68.95000000    29.09000000
   H     62.43000000    66.18000000    31.98000000
   H     61.90000000    68.95000000    31.72000000
   H     61.33000000    67.55000000    30.81000000
   N     64.31000000    67.68000000    30.03000000
   C     65.37000000    67.99000000    29.09000000
   C     66.02000000    66.74000000    28.50000000
   O     66.02000000    65.68000000    29.12000000
   C     66.40000000    68.88000000    29.78000000
   C     65.84000000    70.07000000    30.51000000
   C     66.16000000    70.21000000    31.87000000
   C     65.17000000    71.11000000    29.85000000
   C     65.71000000    71.34000000    32.57000000
   C     64.75000000    72.23000000    30.57000000
   C     64.98000000    72.38000000    31.95000000
   O     64.69000000    73.51000000    32.65000000
   H     64.57000000    67.12000000    30.83000000
   H     65.00000000    68.55000000    28.24000000
   H     66.92000000    69.31000000    28.92000000
   H     67.09000000    68.29000000    30.38000000
   H     66.74000000    69.47000000    32.39000000
   H     65.03000000    71.08000000    28.78000000
   H     65.95000000    71.35000000    33.63000000
   H     64.31000000    73.07000000    30.05000000
   H     64.12000000    74.14000000    32.19000000
   N     66.55000000    66.87000000    27.28000000
   C     67.25000000    65.81000000    26.58000000
   C     68.70000000    66.00000000    27.00000000
   O     69.35000000    67.02000000    26.76000000
   C     66.82000000    65.88000000    25.12000000
   C     65.31000000    65.67000000    25.09000000
   C     67.57000000    64.97000000    24.15000000
   C     64.77000000    64.25000000    25.20000000
   H     66.45000000    67.78000000    26.87000000
   H     66.91000000    64.81000000    26.85000000
   H     67.02000000    66.93000000    24.89000000
   H     64.86000000    66.06000000    24.18000000
   H     64.76000000    66.22000000    25.87000000
   H     67.17000000    65.05000000    23.14000000
   H     68.60000000    65.32000000    24.10000000
   H     67.57000000    63.92000000    24.44000000
   H     63.69000000    64.21000000    25.03000000
   H     65.21000000    63.63000000    24.42000000
   H     64.93000000    63.88000000    26.22000000
   N     69.31000000    64.97000000    27.59000000
   C     70.75000000    64.83000000    27.56000000
   C     71.28000000    64.20000000    26.28000000
   O     70.52000000    63.67000000    25.47000000
   C     71.27000000    64.17000000    28.83000000
   O     70.75000000    62.86000000    28.85000000
   H     68.76000000    64.25000000    28.04000000
   H     71.23000000    65.80000000    27.69000000
   H     70.91000000    64.64000000    29.75000000
   H     72.36000000    64.17000000    28.88000000
   H     69.80000000    62.85000000    28.97000000
   N     72.60000000    64.10000000    26.10000000
   C     73.20000000    63.52000000    24.91000000
   C     72.97000000    62.02000000    24.84000000
   O     72.71000000    61.53000000    23.74000000
   C     74.68000000    63.89000000    24.89000000
   H     73.24000000    64.49000000    26.77000000
   H     72.66000000    63.98000000    24.09000000
   H     75.28000000    63.46000000    25.69000000
   H     75.12000000    63.58000000    23.94000000
   H     74.71000000    64.98000000    24.84000000
   N     72.89000000    61.23000000    25.91000000
   C     72.52000000    59.84000000    25.78000000
   C     71.06000000    59.56000000    25.42000000
   O     70.63000000    58.48000000    25.02000000
   C     72.87000000    59.21000000    27.12000000
   H     73.26000000    61.44000000    26.83000000
   H     73.12000000    59.34000000    25.01000000
   H     72.31000000    59.69000000    27.92000000
   H     72.67000000    58.14000000    27.03000000
   H     73.91000000    59.39000000    27.39000000
   N     70.20000000    60.57000000    25.51000000
   C     68.80000000    60.58000000    25.10000000
   C     68.60000000    61.21000000    23.73000000
   O     67.71000000    60.78000000    23.01000000
   C     67.93000000    61.35000000    26.09000000
   C     67.98000000    60.92000000    27.55000000
   C     67.33000000    61.93000000    28.49000000
   O     66.23000000    61.79000000    29.05000000
   O     67.99000000    62.95000000    28.81000000
   H     70.54000000    61.50000000    25.68000000
   H     68.47000000    59.54000000    25.03000000
   H     66.91000000    61.17000000    25.76000000
   H     68.08000000    62.43000000    26.11000000
   H     68.98000000    60.66000000    27.88000000
   H     67.46000000    59.96000000    27.62000000
   N     69.43000000    62.19000000    23.35000000
   C     69.65000000    62.54000000    21.96000000
   H     70.69900000    62.38600000    21.70900000
   H     69.02800000    61.91000000    21.32300000
   H     69.38900000    63.58700000    21.80300000
   H     69.98000000    62.52000000    24.13000000
  Ca     66.42000000    63.70000000    30.73000000
   O     68.79000000    64.97000000    31.19000000
   H     69.00000000    65.87000000    31.43000000
   H     69.44000000    64.44000000    31.65000000

Ca 1.00



