%chk=loop1.apoCaM-CA-Ng.Init295.run56.water5.chk
%nprocshared=20
%mem=10GB
%nosave
#b3lyp/svp scf=(tight,noincore,xqc) Test 
#IOP(5/87=12) Density=Current Pop=(MK,readradii) iop(6/33=2) iop(6/42=6)

loop1.apoCaM-CA-Ng.Init295.run56.water5 

   0  1 
   C     80.19000000    89.29000000    45.92000000
   C     80.76000000    90.69000000    45.70000000
   O     80.18000000    91.63000000    46.22000000
   H     79.21800000    89.21300000    45.43200000
   H     80.86900000    88.55000000    45.49600000
   H     80.07400000    89.10800000    46.98800000
   N     81.95000000    90.82000000    45.12000000
   C     82.73000000    92.04000000    45.21000000
   C     82.46000000    93.08000000    44.13000000
   O     82.45000000    92.75000000    42.94000000
   C     84.20000000    91.64000000    45.10000000
   C     85.10000000    92.71000000    45.70000000
   O     85.50000000    92.58000000    46.88000000
   O     85.18000000    93.77000000    45.05000000
   H     82.34000000    90.03000000    44.63000000
   H     82.60000000    92.47000000    46.20000000
   H     84.41000000    91.41000000    44.06000000
   H     84.36000000    90.76000000    45.73000000
   N     82.30000000    94.37000000    44.43000000
   C     81.98000000    95.45000000    43.52000000
   C     82.98000000    95.66000000    42.38000000
   O     82.57000000    96.13000000    41.32000000
   C     81.72000000    96.77000000    44.25000000
   C     83.02000000    97.45000000    44.66000000
   C     82.85000000    98.67000000    45.55000000
   C     84.13000000    99.12000000    46.26000000
   N     83.99000000   100.29000000    47.15000000
   H     82.47000000    94.63000000    45.39000000
   H     81.07000000    95.06000000    43.07000000
   H     81.06000000    96.49000000    45.07000000
   H     81.19000000    97.36000000    43.51000000
   H     83.75000000    97.72000000    43.89000000
   H     83.52000000    96.67000000    45.25000000
   H     82.07000000    98.49000000    46.29000000
   H     82.38000000    99.52000000    45.06000000
   H     84.86000000    99.45000000    45.51000000
   H     84.47000000    98.22000000    46.77000000
   H     83.41000000   100.97000000    46.69000000
   H     83.48000000   100.06000000    47.99000000
   H     84.89000000   100.52000000    47.55000000
   N     84.23000000    95.23000000    42.57000000
   C     85.20000000    95.42000000    41.51000000
   C     86.06000000    94.18000000    41.27000000
   O     86.42000000    93.85000000    40.15000000
   C     86.17000000    96.56000000    41.81000000
   C     86.96000000    97.11000000    40.62000000
   O     86.74000000    96.70000000    39.46000000
   O     87.84000000    97.98000000    40.77000000
   H     84.56000000    94.84000000    43.44000000
   H     84.71000000    95.58000000    40.55000000
   H     86.80000000    96.28000000    42.65000000
   H     85.51000000    97.38000000    42.09000000
   N     86.14000000    93.27000000    42.24000000
   C     86.41000000    91.87000000    41.95000000
   C     87.82000000    91.59000000    41.45000000
   O     88.01000000    90.78000000    40.55000000
   H     85.81000000    93.45000000    43.18000000
   H     85.75000000    91.53000000    41.15000000
   H     86.27000000    91.19000000    42.79000000
   N     88.82000000    92.28000000    42.01000000
   C     90.20000000    92.02000000    41.65000000
   C     90.98000000    91.45000000    42.82000000
   O     90.53000000    91.59000000    43.96000000
   C     90.82000000    93.30000000    41.10000000
   C     89.96000000    94.15000000    40.17000000
   O     89.90000000    93.87000000    38.95000000
   O     89.37000000    95.17000000    40.57000000
   H     88.60000000    92.81000000    42.83000000
   H     90.29000000    91.24000000    40.89000000
   H     91.70000000    93.02000000    40.52000000
   H     91.20000000    93.93000000    41.90000000
   N     92.11000000    90.78000000    42.56000000
   C     92.89000000    90.01000000    43.50000000
   C     92.22000000    88.72000000    43.95000000
   O     91.41000000    88.20000000    43.19000000
   H     92.33000000    90.76000000    41.57000000
   H     93.00000000    90.60000000    44.41000000
   H     93.84000000    89.83000000    42.99000000
   N     92.74000000    88.16000000    45.04000000
   C     92.38000000    86.86000000    45.57000000
   C     93.56000000    85.95000000    45.88000000
   O     94.59000000    86.44000000    46.35000000
   C     91.50000000    86.91000000    46.81000000
   C     92.17000000    87.68000000    47.95000000
   O     90.33000000    87.56000000    46.37000000
   H     93.37000000    88.74000000    45.57000000
   H     91.91000000    86.31000000    44.75000000
   H     91.25000000    85.94000000    47.24000000
   H     90.47000000    88.46000000    46.66000000
   H     91.38000000    87.89000000    48.67000000
   H     92.96000000    87.11000000    48.44000000
   H     92.55000000    88.64000000    47.62000000
   N     93.45000000    84.67000000    45.54000000
   C     94.40000000    83.65000000    45.95000000
   C     94.75000000    82.66000000    44.85000000
   O     95.73000000    81.94000000    45.03000000
   C     93.87000000    82.84000000    47.13000000
   C     92.49000000    82.19000000    47.04000000
   C     94.04000000    83.72000000    48.36000000
   C     91.96000000    81.55000000    48.31000000
   H     92.52000000    84.43000000    45.24000000
   H     95.35000000    84.12000000    46.18000000
   H     94.52000000    81.99000000    47.34000000
   H     92.61000000    81.50000000    46.20000000
   H     91.77000000    82.95000000    46.75000000
   H     93.18000000    84.38000000    48.37000000
   H     93.99000000    83.10000000    49.26000000
   H     95.00000000    84.24000000    48.40000000
   H     90.95000000    81.17000000    48.15000000
   H     92.66000000    80.75000000    48.58000000
   H     91.98000000    82.25000000    49.15000000
   N     94.06000000    82.61000000    43.71000000
   C     94.41000000    81.75000000    42.59000000
   C     93.26000000    80.95000000    42.00000000
   O     92.15000000    81.43000000    41.77000000
   C     95.00000000    82.60000000    41.47000000
   C     96.26000000    83.32000000    41.93000000
   O     95.45000000    81.83000000    40.38000000
   H     93.31000000    83.26000000    43.52000000
   H     95.18000000    81.06000000    42.92000000
   H     94.23000000    83.25000000    41.05000000
   H     94.91000000    81.98000000    39.60000000
   H     96.64000000    83.79000000    41.02000000
   H     96.14000000    84.07000000    42.72000000
   H     96.99000000    82.61000000    42.32000000
   N     93.44000000    79.65000000    41.75000000
   C     92.50000000    78.68000000    41.24000000
   C     91.61000000    78.12000000    42.35000000
   O     90.40000000    77.96000000    42.21000000
   C     93.25000000    77.62000000    40.44000000
   C     92.31000000    76.67000000    39.71000000
   O     93.99000000    76.78000000    41.30000000
   H     94.36000000    79.32000000    42.01000000
   H     91.90000000    79.22000000    40.51000000
   H     93.99000000    78.11000000    39.81000000
   H     94.73000000    77.27000000    41.65000000
   H     91.48000000    76.28000000    40.29000000
   H     91.96000000    77.23000000    38.83000000
   H     92.93000000    75.83000000    39.41000000
   N     92.30000000    77.88000000    43.47000000
   C     91.78000000    77.34000000    44.71000000
   C     90.87000000    78.33000000    45.43000000
   O     90.79000000    79.51000000    45.08000000
   C     92.96000000    77.03000000    45.62000000
   C     93.87000000    78.20000000    45.95000000
   C     94.91000000    77.74000000    46.97000000
   C     95.64000000    79.01000000    47.39000000
   N     96.78000000    78.64000000    48.24000000
   H     93.29000000    78.04000000    43.46000000
   H     91.22000000    76.41000000    44.66000000
   H     93.59000000    76.37000000    45.02000000
   H     92.61000000    76.53000000    46.52000000
   H     93.33000000    78.97000000    46.50000000
   H     94.34000000    78.67000000    45.09000000
   H     95.63000000    77.07000000    46.52000000
   H     94.41000000    77.32000000    47.85000000
   H     94.99000000    79.73000000    47.89000000
   H     95.91000000    79.32000000    46.39000000
   H     96.59000000    77.88000000    48.88000000
   H     97.61000000    78.38000000    47.71000000
   H     96.97000000    79.46000000    48.79000000
   N     90.05000000    77.81000000    46.34000000
   C     89.19000000    78.63000000    47.17000000
   C     87.80000000    78.02000000    47.36000000
   O     87.67000000    76.83000000    47.65000000
   C     89.80000000    78.71000000    48.57000000
   C     88.99000000    79.49000000    49.60000000
   C     89.78000000    79.55000000    50.91000000
   O     89.84000000    80.60000000    51.58000000
   O     90.24000000    78.49000000    51.39000000
   H     90.03000000    76.80000000    46.37000000
   H     89.09000000    79.64000000    46.78000000
   H     90.84000000    79.02000000    48.47000000
   H     89.84000000    77.72000000    49.01000000
   H     87.94000000    79.20000000    49.69000000
   H     88.92000000    80.51000000    49.23000000
   N     86.65000000    78.67000000    47.19000000
   C     86.43000000    79.93000000    46.50000000
   H     85.59100000    80.45300000    46.95900000
   H     87.32600000    80.54600000    46.57400000
   H     86.20700000    79.73600000    45.45100000
   H     85.86000000    78.11000000    47.47000000
  Ca     87.78000000    94.96000000    38.06000000
   O     85.06000000    94.39000000    37.86000000
   H     85.06000000    93.43000000    37.80000000
   H     84.17000000    94.61000000    38.13000000
   O     89.69000000    96.46000000    37.29000000
   H     90.51000000    96.28000000    36.84000000
   H     89.81000000    97.33000000    37.66000000
   O     86.34000000    96.30000000    36.32000000
   H     86.01000000    97.08000000    35.87000000
   H     85.64000000    95.66000000    36.24000000
   O     87.29000000    92.35000000    37.31000000
   H     86.36000000    92.16000000    37.18000000
   H     87.74000000    91.62000000    36.88000000
   O     88.45000000    94.10000000    35.55000000
   H     88.51000000    93.22000000    35.18000000
   H     88.06000000    94.62000000    34.85000000

Ca 1.00



