%chk=loop4.holoCaM-CaMKII.run15.water2.chk
%nprocshared=20
%mem=10GB
%nosave
#b3lyp/svp scf=(tight,noincore,xqc) Test 
#IOP(5/87=12) Density=Current Pop=(MK,readradii) iop(6/33=2) iop(6/42=6)

loop4.holoCaM-CaMKII.run15.water2 

   -3  1 
   C     79.59000000    58.23000000    30.02000000
   C     79.07000000    58.85000000    31.31000000
   O     79.14000000    60.06000000    31.51000000
   H     80.60900000    57.87400000    30.17400000
   H     78.95200000    57.39300000    29.73600000
   H     79.58300000    58.97900000    29.22800000
   N     78.75000000    58.02000000    32.31000000
   C     78.40000000    58.47000000    33.64000000
   C     79.64000000    58.88000000    34.41000000
   O     80.53000000    58.05000000    34.57000000
   C     77.60000000    57.44000000    34.43000000
   C     77.42000000    57.72000000    35.91000000
   O     77.32000000    58.90000000    36.33000000
   O     77.21000000    56.74000000    36.66000000
   H     78.76000000    57.04000000    32.09000000
   H     77.78000000    59.36000000    33.47000000
   H     77.87000000    56.38000000    34.38000000
   H     76.60000000    57.35000000    34.00000000
   N     79.74000000    60.12000000    34.90000000
   C     80.99000000    60.62000000    35.44000000
   C     81.00000000    60.44000000    36.95000000
   O     82.09000000    60.32000000    37.50000000
   C     81.27000000    62.05000000    35.01000000
   C     81.27000000    62.27000000    33.50000000
   C     82.58000000    62.60000000    35.58000000
   C     82.41000000    61.78000000    32.61000000
   H     79.01000000    60.81000000    34.72000000
   H     81.78000000    60.00000000    35.02000000
   H     80.51000000    62.69000000    35.47000000
   H     81.36000000    63.36000000    33.44000000
   H     80.30000000    61.92000000    33.15000000
   H     82.62000000    62.56000000    36.67000000
   H     83.37000000    61.96000000    35.20000000
   H     82.73000000    63.58000000    35.12000000
   H     83.34000000    62.16000000    33.05000000
   H     82.28000000    60.70000000    32.59000000
   H     82.40000000    62.24000000    31.63000000
   N     79.86000000    60.53000000    37.64000000
   C     79.70000000    60.67000000    39.07000000
   C     79.11000000    59.50000000    39.84000000
   O     79.01000000    59.50000000    41.07000000
   C     79.11000000    62.02000000    39.44000000
   C     77.79000000    62.31000000    38.73000000
   O     77.25000000    63.43000000    38.87000000
   O     77.14000000    61.40000000    38.18000000
   H     79.03000000    60.71000000    37.08000000
   H     80.71000000    60.68000000    39.50000000
   H     79.77000000    62.88000000    39.35000000
   H     78.84000000    62.00000000    40.50000000
   N     78.80000000    58.43000000    39.11000000
   C     78.51000000    57.13000000    39.68000000
   C     77.08000000    56.74000000    40.03000000
   O     76.89000000    55.57000000    40.37000000
   H     78.70000000    58.50000000    38.11000000
   H     79.05000000    57.09000000    40.63000000
   H     78.97000000    56.39000000    39.02000000
   N     76.11000000    57.63000000    39.84000000
   C     74.70000000    57.40000000    40.09000000
   C     74.10000000    56.38000000    39.14000000
   O     72.94000000    55.99000000    39.30000000
   C     73.93000000    58.72000000    40.05000000
   C     74.06000000    59.50000000    38.75000000
   O     73.67000000    60.68000000    38.64000000
   O     74.46000000    58.88000000    37.74000000
   H     76.35000000    58.51000000    39.41000000
   H     74.60000000    56.92000000    41.07000000
   H     74.37000000    59.35000000    40.82000000
   H     72.89000000    58.53000000    40.35000000
   N     74.72000000    55.96000000    38.03000000
   C     74.22000000    55.07000000    37.01000000
   C     73.38000000    55.58000000    35.85000000
   O     72.77000000    54.80000000    35.11000000
   H     75.65000000    56.29000000    37.82000000
   H     73.62000000    54.29000000    37.48000000
   H     75.07000000    54.48000000    36.66000000
   N     73.30000000    56.90000000    35.72000000
   C     72.65000000    57.53000000    34.59000000
   C     73.66000000    58.52000000    34.03000000
   O     74.53000000    59.09000000    34.69000000
   C     71.36000000    58.17000000    35.10000000
   C     70.19000000    57.19000000    35.15000000
   C     69.01000000    57.82000000    35.87000000
   N     68.77000000    57.69000000    37.18000000
   O     68.13000000    58.41000000    35.25000000
   H     73.75000000    57.53000000    36.38000000
   H     72.33000000    56.79000000    33.86000000
   H     71.04000000    59.08000000    34.57000000
   H     71.59000000    58.57000000    36.08000000
   H     70.52000000    56.32000000    35.71000000
   H     69.91000000    56.92000000    34.13000000
   H     69.49000000    57.16000000    37.65000000
   H     68.00000000    58.14000000    37.64000000
   N     73.27000000    58.90000000    32.81000000
   C     73.80000000    59.99000000    32.00000000
   C     73.01000000    61.28000000    32.08000000
   O     71.84000000    61.25000000    31.70000000
   C     73.99000000    59.46000000    30.58000000
   C     74.64000000    60.54000000    29.72000000
   C     74.87000000    58.22000000    30.60000000
   H     72.48000000    58.41000000    32.41000000
   H     74.84000000    60.12000000    32.32000000
   H     73.07000000    59.15000000    30.09000000
   H     74.12000000    61.49000000    29.64000000
   H     75.62000000    60.80000000    30.11000000
   H     74.74000000    60.19000000    28.69000000
   H     75.06000000    57.82000000    29.60000000
   H     75.82000000    58.48000000    31.06000000
   H     74.51000000    57.32000000    31.11000000
   N     73.53000000    62.41000000    32.55000000
   C     72.87000000    63.70000000    32.48000000
   C     73.07000000    64.43000000    31.16000000
   O     74.04000000    64.10000000    30.48000000
   C     73.40000000    64.46000000    33.70000000
   C     72.86000000    65.85000000    33.98000000
   N     71.52000000    65.88000000    34.06000000
   O     73.57000000    66.85000000    34.03000000
   H     74.37000000    62.29000000    33.10000000
   H     71.79000000    63.59000000    32.61000000
   H     74.49000000    64.56000000    33.62000000
   H     73.20000000    63.90000000    34.61000000
   H     70.98000000    65.06000000    33.83000000
   H     71.10000000    66.62000000    34.59000000
   N     72.23000000    65.40000000    30.82000000
   C     72.44000000    66.31000000    29.71000000
   C     73.85000000    66.88000000    29.69000000
   O     74.46000000    66.88000000    28.63000000
   C     71.40000000    67.42000000    29.65000000
   C     71.70000000    68.35000000    28.50000000
   C     71.43000000    68.00000000    27.17000000
   C     72.36000000    69.55000000    28.78000000
   C     71.89000000    68.76000000    26.09000000
   C     72.81000000    70.36000000    27.73000000
   C     72.56000000    69.96000000    26.40000000
   O     72.86000000    70.74000000    25.32000000
   H     71.42000000    65.59000000    31.39000000
   H     72.37000000    65.74000000    28.78000000
   H     71.35000000    68.08000000    30.52000000
   H     70.38000000    67.05000000    29.65000000
   H     70.83000000    67.12000000    27.02000000
   H     72.55000000    69.84000000    29.80000000
   H     71.73000000    68.38000000    25.09000000
   H     73.23000000    71.33000000    27.97000000
   H     73.34000000    71.54000000    25.54000000
   N     74.41000000    67.27000000    30.84000000
   C     75.76000000    67.78000000    30.83000000
   C     76.76000000    66.65000000    30.62000000
   O     77.89000000    66.89000000    30.18000000
   C     76.11000000    68.50000000    32.14000000
   C     75.35000000    69.74000000    32.62000000
   C     75.94000000    70.33000000    33.89000000
   O     75.27000000    70.20000000    34.94000000
   O     77.06000000    70.87000000    33.82000000
   H     73.94000000    67.28000000    31.74000000
   H     75.93000000    68.51000000    30.03000000
   H     77.17000000    68.72000000    32.06000000
   H     76.22000000    67.76000000    32.93000000
   H     74.33000000    69.39000000    32.73000000
   H     75.32000000    70.50000000    31.83000000
   N     76.51000000    65.38000000    30.93000000
   C     77.41000000    64.28000000    30.68000000
   C     77.35000000    63.76000000    29.25000000
   O     78.24000000    63.06000000    28.77000000
   C     77.09000000    63.13000000    31.64000000
   C     77.55000000    63.35000000    33.08000000
   C     77.04000000    62.31000000    34.06000000
   O     77.66000000    62.19000000    35.14000000
   O     75.88000000    61.86000000    34.01000000
   H     75.56000000    65.11000000    31.14000000
   H     78.43000000    64.60000000    30.87000000
   H     77.65000000    62.27000000    31.29000000
   H     76.04000000    62.85000000    31.75000000
   H     77.25000000    64.35000000    33.42000000
   H     78.64000000    63.36000000    33.07000000
   N     76.36000000    64.22000000    28.48000000
   C     76.24000000    63.92000000    27.07000000
   H     75.70300000    64.72700000    26.57200000
   H     77.23400000    63.82200000    26.63300000
   H     75.69200000    62.98600000    26.94200000
   H     75.78000000    65.01000000    28.74000000
  Ca     75.55000000    60.82000000    36.32000000
   O     73.05000000    61.17000000    35.67000000
   H     72.36000000    61.05000000    36.32000000
   H     72.58000000    61.18000000    34.83000000
   O     75.00000000    63.19000000    37.16000000
   H     75.68000000    63.45000000    37.78000000
   H     74.33000000    63.86000000    37.25000000

Ca 1.00



