%chk=loop4.apoCaM-CA-Ng.Init293.run30.water3.chk
%nprocshared=20
%mem=10GB
%nosave
#b3lyp/svp scf=(tight,noincore,xqc) Test 
#IOP(5/87=12) Density=Current Pop=(MK,readradii) iop(6/33=2) iop(6/42=6)

loop4.apoCaM-CA-Ng.Init293.run30.water3 

   -3  1 
   C     22.52000000    97.29000000     0.54000000
   C     22.73000000    98.80000000     0.59000000
   O     23.83000000    99.34000000     0.67000000
   H     21.59400000    97.07000000     0.00900000
   H     23.35600000    96.82300000     0.02000000
   H     22.45800000    96.89700000     1.55500000
   N     21.60000000    99.50000000     0.67000000
   C     21.49000000   100.91000000     0.97000000
   C     22.39000000   101.81000000     0.13000000
   O     23.32000000   102.45000000     0.61000000
   C     21.43000000   101.22000000     2.46000000
   C     22.48000000   100.54000000     3.33000000
   O     22.24000000    99.46000000     3.91000000
   O     23.59000000   101.10000000     3.52000000
   H     20.72000000    99.05000000     0.48000000
   H     20.49000000   101.23000000     0.68000000
   H     20.41000000   101.08000000     2.79000000
   H     21.55000000   102.30000000     2.50000000
   N     22.20000000   101.67000000    -1.18000000
   C     22.90000000   102.37000000    -2.25000000
   C     23.04000000   103.86000000    -2.01000000
   O     23.91000000   104.53000000    -2.57000000
   C     24.21000000   101.73000000    -2.70000000
   C     23.92000000   100.43000000    -3.44000000
   C     25.31000000   101.59000000    -1.66000000
   C     23.53000000    99.13000000    -2.75000000
   H     21.51000000   100.98000000    -1.43000000
   H     22.22000000   102.40000000    -3.10000000
   H     24.69000000   102.40000000    -3.42000000
   H     24.84000000   100.30000000    -4.01000000
   H     23.13000000   100.70000000    -4.15000000
   H     25.10000000   100.76000000    -0.99000000
   H     26.27000000   101.34000000    -2.10000000
   H     25.49000000   102.45000000    -1.01000000
   H     24.21000000    98.90000000    -1.93000000
   H     22.55000000    99.15000000    -2.26000000
   H     23.57000000    98.35000000    -3.50000000
   N     22.16000000   104.47000000    -1.21000000
   C     22.31000000   105.80000000    -0.66000000
   C     23.31000000   105.95000000     0.48000000
   O     23.31000000   105.16000000     1.43000000
   C     20.93000000   106.22000000    -0.16000000
   C     21.05000000   107.60000000     0.48000000
   O     21.32000000   108.58000000    -0.24000000
   O     21.04000000   107.70000000     1.73000000
   H     21.36000000   103.99000000    -0.84000000
   H     22.58000000   106.49000000    -1.46000000
   H     20.64000000   105.49000000     0.59000000
   H     20.16000000   106.18000000    -0.93000000
   N     24.28000000   106.86000000     0.44000000
   C     24.49000000   107.80000000    -0.64000000
   C     25.79000000   108.52000000    -0.30000000
   O     26.39000000   108.31000000     0.75000000
   H     24.93000000   106.78000000     1.21000000
   H     23.68000000   108.50000000    -0.85000000
   H     24.75000000   107.28000000    -1.56000000
   N     26.20000000   109.54000000    -1.06000000
   C     25.64000000   110.00000000    -2.32000000
   C     26.00000000   109.11000000    -3.50000000
   O     25.15000000   108.77000000    -4.32000000
   C     26.08000000   111.43000000    -2.62000000
   C     26.20000000   111.87000000    -4.07000000
   O     27.37000000   112.12000000    -4.43000000
   O     25.19000000   112.16000000    -4.75000000
   H     26.94000000   110.09000000    -0.65000000
   H     24.55000000   109.94000000    -2.27000000
   H     27.05000000   111.61000000    -2.15000000
   H     25.30000000   112.04000000    -2.16000000
   N     27.11000000   108.38000000    -3.62000000
   C     28.28000000   108.47000000    -2.76000000
   C     29.67000000   108.58000000    -3.37000000
   O     29.92000000   108.10000000    -4.47000000
   H     26.99000000   107.60000000    -4.24000000
   H     28.39000000   107.58000000    -2.15000000
   H     28.27000000   109.29000000    -2.04000000
   N     30.66000000   109.18000000    -2.70000000
   C     32.05000000   109.42000000    -3.05000000
   C     32.93000000   108.23000000    -2.74000000
   O     34.16000000   108.31000000    -2.82000000
   C     32.56000000   110.68000000    -2.35000000
   C     32.12000000   112.03000000    -2.91000000
   C     30.62000000   112.24000000    -3.04000000
   N     30.10000000   111.77000000    -4.18000000
   O     29.91000000   112.72000000    -2.17000000
   H     30.35000000   109.52000000    -1.80000000
   H     32.14000000   109.50000000    -4.13000000
   H     33.64000000   110.63000000    -2.27000000
   H     32.14000000   110.60000000    -1.35000000
   H     32.64000000   112.21000000    -3.85000000
   H     32.56000000   112.86000000    -2.36000000
   H     30.71000000   111.24000000    -4.79000000
   H     29.12000000   111.94000000    -4.33000000
   N     32.32000000   107.12000000    -2.30000000
   C     32.97000000   105.94000000    -1.77000000
   C     32.56000000   105.70000000    -0.33000000
   O     31.41000000   105.90000000     0.06000000
   C     32.90000000   104.76000000    -2.74000000
   C     33.91000000   103.68000000    -2.33000000
   C     33.17000000   105.20000000    -4.17000000
   H     31.33000000   107.17000000    -2.13000000
   H     34.01000000   106.21000000    -1.62000000
   H     31.90000000   104.34000000    -2.65000000
   H     33.73000000   103.16000000    -1.39000000
   H     33.74000000   102.98000000    -3.15000000
   H     34.88000000   104.17000000    -2.38000000
   H     32.42000000   105.88000000    -4.57000000
   H     34.19000000   105.58000000    -4.22000000
   H     33.17000000   104.43000000    -4.94000000
   N     33.47000000   105.09000000     0.43000000
   C     33.29000000   104.54000000     1.76000000
   C     32.99000000   105.62000000     2.79000000
   O     32.52000000   105.32000000     3.89000000
   C     34.58000000   103.83000000     2.17000000
   C     35.22000000   102.76000000     1.29000000
   N     36.54000000   102.78000000     1.16000000
   O     34.57000000   101.92000000     0.67000000
   H     34.35000000   104.89000000    -0.03000000
   H     32.47000000   103.81000000     1.81000000
   H     34.35000000   103.27000000     3.08000000
   H     35.37000000   104.52000000     2.44000000
   H     36.99000000   103.57000000     1.61000000
   H     36.97000000   102.05000000     0.60000000
   N     33.39000000   106.86000000     2.50000000
   C     33.24000000   108.03000000     3.34000000
   C     31.87000000   108.14000000     3.99000000
   O     30.87000000   108.28000000     3.28000000
   C     33.50000000   109.27000000     2.49000000
   C     34.82000000   109.19000000     1.77000000
   C     36.03000000   109.22000000     2.48000000
   C     34.86000000   109.15000000     0.37000000
   C     37.29000000   109.16000000     1.86000000
   C     36.11000000   109.16000000    -0.25000000
   C     37.33000000   109.13000000     0.45000000
   O     38.51000000   109.13000000    -0.24000000
   H     33.93000000   106.99000000     1.66000000
   H     34.04000000   108.09000000     4.08000000
   H     33.43000000   110.08000000     3.22000000
   H     32.67000000   109.40000000     1.81000000
   H     36.07000000   109.30000000     3.56000000
   H     33.97000000   109.26000000    -0.24000000
   H     38.20000000   109.26000000     2.44000000
   H     36.09000000   109.06000000    -1.32000000
   H     38.29000000   109.04000000    -1.17000000
   N     31.84000000   108.03000000     5.32000000
   C     30.68000000   107.99000000     6.19000000
   C     29.75000000   106.81000000     5.96000000
   O     29.06000000   106.30000000     6.85000000
   C     29.98000000   109.34000000     6.26000000
   C     30.84000000   110.41000000     6.93000000
   C     29.99000000   111.56000000     7.43000000
   O     29.90000000   111.78000000     8.65000000
   O     29.54000000   112.39000000     6.61000000
   H     32.72000000   107.84000000     5.77000000
   H     31.06000000   107.82000000     7.20000000
   H     29.11000000   109.19000000     6.91000000
   H     29.54000000   109.70000000     5.32000000
   H     31.57000000   110.78000000     6.21000000
   H     31.48000000   110.09000000     7.75000000
   N     29.82000000   106.14000000     4.81000000
   C     29.06000000   105.00000000     4.36000000
   C     29.54000000   103.64000000     4.86000000
   O     28.89000000   102.62000000     4.63000000
   C     29.23000000   104.96000000     2.84000000
   C     28.22000000   105.85000000     2.14000000
   C     26.85000000   105.18000000     2.06000000
   O     26.56000000   104.27000000     1.27000000
   O     26.12000000   105.37000000     3.05000000
   H     30.30000000   106.67000000     4.09000000
   H     27.98000000   105.03000000     4.52000000
   H     29.15000000   103.94000000     2.46000000
   H     30.22000000   105.33000000     2.57000000
   H     28.46000000   106.00000000     1.09000000
   H     28.16000000   106.80000000     2.67000000
   N     30.63000000   103.59000000     5.62000000
   C     31.08000000   102.48000000     6.44000000
   H     31.98800000   102.76600000     6.97100000
   H     30.30400000   102.22200000     7.16100000
   H     31.28700000   101.61900000     5.80500000
   H     31.11000000   104.45000000     5.84000000
  Ca     24.71000000   103.21300000     2.60000000
   O     26.20000000   102.63300000     4.81000000
   H     26.07000000   102.02300000     5.54000000
   H     27.14000000   102.63300000     4.66000000
   O     25.93000000   100.94300000     1.29000000
   H     26.61000000   100.38300000     1.65000000
   H     25.41000000   100.37300000     0.72000000
   O     22.99000000   103.80300000     4.61000000
   H     23.15000000   104.29300000     5.42000000
   H     22.18000000   103.32300000     4.77000000

Ca 1.00



