%chk=loop2.holoCaM.run60.water2.chk
%nprocshared=20
%mem=10GB
%nosave
#b3lyp/svp scf=(tight,noincore,xqc) Test 
#IOP(5/87=12) Density=Current Pop=(MK,readradii) iop(6/33=2) iop(6/42=6)

loop2.holoCaM.run60.water2 

   -2  1 
   C     61.76000000    59.55000000    -8.36400000
   C     60.28000000    59.85000000    -8.20400000
   O     59.88000000    60.63000000    -7.34400000
   H     62.32200000    60.07800000    -7.59400000
   H     61.92700000    58.47700000    -8.26400000
   H     62.09400000    59.88000000    -9.34800000
   N     59.42000000    59.06000000    -8.85400000
   C     58.05000000    58.89000000    -8.39400000
   C     58.03000000    58.23000000    -7.02400000
   O     58.29000000    57.05000000    -6.82400000
   C     57.23000000    58.13000000    -9.43400000
   C     55.73000000    58.18000000    -9.21400000
   O     54.94000000    57.46000000    -9.85400000
   O     55.32000000    58.92000000    -8.29400000
   H     59.71000000    58.39000000    -9.55400000
   H     57.67000000    59.91000000    -8.30400000
   H     57.58000000    57.10000000    -9.45400000
   H     57.48000000    58.56000000   -10.40400000
   N     57.48000000    58.98000000    -6.06400000
   C     57.52000000    58.73000000    -4.63400000
   C     56.36000000    57.90000000    -4.09400000
   O     56.52000000    57.04000000    -3.24400000
   C     57.55000000    60.12000000    -4.00400000
   H     57.12000000    59.89000000    -6.29400000
   H     58.48000000    58.23000000    -4.49400000
   H     58.33000000    60.68000000    -4.52400000
   H     56.58000000    60.60000000    -4.10400000
   H     57.78000000    60.00000000    -2.94400000
   N     55.17000000    58.10000000    -4.67400000
   C     54.11000000    57.12000000    -4.61400000
   C     54.22000000    55.94000000    -5.57400000
   O     53.82000000    54.83000000    -5.24400000
   C     52.74000000    57.78000000    -4.69400000
   C     52.52000000    58.47000000    -6.02400000
   O     51.83000000    57.96000000    -6.93400000
   O     53.00000000    59.62000000    -6.16400000
   H     54.98000000    58.88000000    -5.28400000
   H     54.26000000    56.61000000    -3.66400000
   H     52.53000000    58.53000000    -3.93400000
   H     52.04000000    56.96000000    -4.52400000
   N     54.79000000    56.25000000    -6.74400000
   C     55.22000000    55.22000000    -7.67400000
   C     54.11000000    54.70000000    -8.58400000
   O     54.24000000    53.63000000    -9.17400000
   H     55.06000000    57.21000000    -6.90400000
   H     55.60000000    54.36000000    -7.12400000
   H     55.96000000    55.63000000    -8.36400000
   N     52.98000000    55.40000000    -8.63400000
   C     51.82000000    55.12000000    -9.45400000
   C     51.96000000    55.49000000   -10.92400000
   O     50.98000000    55.17000000   -11.58400000
   C     50.57000000    55.53000000    -8.68400000
   C     50.43000000    54.79000000    -7.35400000
   N     50.28000000    55.45000000    -6.20400000
   O     50.43000000    53.56000000    -7.38400000
   H     52.92000000    56.17000000    -7.97400000
   H     51.70000000    54.04000000    -9.55400000
   H     49.69000000    55.39000000    -9.32400000
   H     50.76000000    56.59000000    -8.56400000
   H     50.30000000    56.46000000    -6.28400000
   H     50.03000000    54.91000000    -5.39400000
   N     52.96000000    56.24000000   -11.39400000
   C     53.12000000    56.58000000   -12.79400000
   C     53.02000000    58.04000000   -13.22400000
   O     53.14000000    58.30000000   -14.41400000
   H     53.72000000    56.45000000   -10.76400000
   H     52.44000000    56.08000000   -13.47400000
   H     54.03000000    56.10000000   -13.15400000
   N     52.86000000    59.00000000   -12.31400000
   C     52.95000000    60.39000000   -12.73400000
   C     53.92000000    61.25000000   -11.92400000
   O     54.12000000    61.03000000   -10.73400000
   C     51.58000000    61.06000000   -12.63400000
   C     50.63000000    60.53000000   -13.70400000
   O     51.03000000    60.81000000   -11.36400000
   H     52.77000000    58.71000000   -11.35400000
   H     53.11000000    60.52000000   -13.80400000
   H     51.66000000    62.14000000   -12.76400000
   H     51.62000000    61.09000000   -10.66400000
   H     51.12000000    60.59000000   -14.67400000
   H     50.45000000    59.49000000   -13.45400000
   H     49.73000000    61.14000000   -13.65400000
   N     54.59000000    62.26000000   -12.48400000
   C     55.42000000    63.23000000   -11.80400000
   C     54.65000000    64.40000000   -11.20400000
   O     53.91000000    65.10000000   -11.89400000
   C     56.53000000    63.64000000   -12.77400000
   C     57.45000000    62.49000000   -13.16400000
   C     57.31000000    64.85000000   -12.27400000
   C     57.99000000    61.72000000   -11.96400000
   H     54.46000000    62.61000000   -13.42400000
   H     55.81000000    62.73000000   -10.91400000
   H     56.16000000    64.02000000   -13.73400000
   H     58.23000000    62.89000000   -13.82400000
   H     56.86000000    61.85000000   -13.82400000
   H     57.61000000    64.72000000   -11.23400000
   H     58.18000000    65.01000000   -12.91400000
   H     56.73000000    65.76000000   -12.33400000
   H     58.81000000    61.07000000   -12.27400000
   H     58.42000000    62.42000000   -11.25400000
   H     57.22000000    61.10000000   -11.50400000
   N     54.81000000    64.63000000    -9.90400000
   C     54.36000000    65.81000000    -9.20400000
   C     55.42000000    66.90000000    -9.27400000
   O     56.60000000    66.63000000    -9.48400000
   C     53.97000000    65.55000000    -7.74400000
   C     53.02000000    64.39000000    -7.48400000
   O     53.45000000    63.34000000    -6.96400000
   O     51.80000000    64.54000000    -7.70400000
   H     55.53000000    64.07000000    -9.46400000
   H     53.38000000    66.08000000    -9.61400000
   H     53.44000000    66.46000000    -7.46400000
   H     54.83000000    65.33000000    -7.11400000
   N     55.16000000    68.17000000    -8.93400000
   C     56.20000000    69.18000000    -9.00400000
   C     57.40000000    68.95000000    -8.09400000
   O     58.52000000    69.04000000    -8.58400000
   C     55.47000000    70.49000000    -8.72400000
   C     56.38000000    71.69000000    -8.68400000
   C     57.09000000    72.02000000    -9.84400000
   C     56.58000000    72.42000000    -7.50400000
   C     57.94000000    73.13000000    -9.88400000
   C     57.51000000    73.47000000    -7.52400000
   C     58.13000000    73.87000000    -8.71400000
   H     54.26000000    68.47000000    -8.59400000
   H     56.62000000    69.20000000   -10.00400000
   H     54.98000000    70.37000000    -7.75400000
   H     54.66000000    70.58000000    -9.44400000
   H     57.01000000    71.32000000   -10.66400000
   H     56.03000000    72.16000000    -6.61400000
   H     58.46000000    73.45000000   -10.78400000
   H     57.66000000    74.05000000    -6.62400000
   H     58.91000000    74.60000000    -8.77400000
   N     57.29000000    68.42000000    -6.87400000
   C     58.49000000    68.14000000    -6.10400000
   C     59.23000000    66.92000000    -6.63400000
   O     60.40000000    66.72000000    -6.31400000
   C     58.03000000    68.06000000    -4.65400000
   C     56.71000000    68.82000000    -4.65400000
   C     56.13000000    68.40000000    -6.00400000
   H     59.20000000    68.96000000    -6.14400000
   H     57.91000000    67.03000000    -4.30400000
   H     58.76000000    68.65000000    -4.09400000
   H     56.03000000    68.61000000    -3.82400000
   H     56.90000000    69.89000000    -4.64400000
   H     55.80000000    67.37000000    -5.89400000
   H     55.30000000    69.07000000    -6.26400000
   N     58.57000000    66.05000000    -7.40400000
   C     59.28000000    64.93000000    -7.99400000
   C     59.97000000    65.43000000    -9.25400000
   O     61.12000000    65.05000000    -9.48400000
   C     58.34000000    63.79000000    -8.40400000
   C     57.60000000    63.15000000    -7.23400000
   C     56.44000000    62.23000000    -7.59400000
   O     55.90000000    62.34000000    -8.71400000
   O     55.98000000    61.40000000    -6.77400000
   H     57.63000000    66.27000000    -7.68400000
   H     60.06000000    64.61000000    -7.30400000
   H     58.85000000    62.99000000    -8.94400000
   H     57.62000000    64.24000000    -9.09400000
   H     57.25000000    63.97000000    -6.61400000
   H     58.31000000    62.59000000    -6.63400000
   N     59.42000000    66.40000000    -9.99400000
   C     60.04000000    67.06000000   -11.12400000
   H     61.04800000    66.66900000   -11.26400000
   H     59.45100000    66.87500000   -12.02200000
   H     60.09000000    68.13300000   -10.93600000
   H     58.55000000    66.79000000    -9.66400000
  Ca     53.76000000    60.97000000    -8.11400000
   O     52.57000000    58.80000000    -9.44400000
   H     52.19000000    58.43000000    -8.64400000
   H     53.26000000    58.18000000    -9.69400000
   O     51.39000000    61.96000000    -8.60400000
   H     50.47000000    61.70000000    -8.65400000
   H     51.37000000    62.86000000    -8.28400000

Ca 1.00



