%chk=loop1.apoCaM-CA-Ng.Init31.run31.water4.chk
%nprocshared=20
%mem=10GB
%nosave
#b3lyp/svp scf=(tight,noincore,xqc) Test 
#IOP(5/87=12) Density=Current Pop=(MK,readradii) iop(6/33=2) iop(6/42=6)

loop1.apoCaM-CA-Ng.Init31.run31.water4 

   0  1 
   C     76.30000000    68.14000000    81.29000000
   C     76.20000000    68.66000000    79.86000000
   O     76.67000000    69.75000000    79.53000000
   H     76.75400000    68.90300000    81.92200000
   H     75.30300000    67.90600000    81.66300000
   H     76.91500000    67.24000000    81.30800000
   N     75.69000000    67.84000000    78.94000000
   C     75.50000000    68.01000000    77.51000000
   C     74.14000000    67.53000000    77.03000000
   O     73.30000000    66.88000000    77.64000000
   C     76.76000000    67.50000000    76.80000000
   C     76.79000000    67.88000000    75.33000000
   O     76.13000000    68.85000000    74.90000000
   O     77.57000000    67.31000000    74.53000000
   H     75.60000000    66.88000000    79.25000000
   H     75.52000000    69.08000000    77.31000000
   H     76.85000000    66.42000000    76.85000000
   H     77.62000000    67.94000000    77.31000000
   N     73.83000000    67.84000000    75.77000000
   C     72.59000000    67.46000000    75.11000000
   C     72.41000000    65.97000000    74.92000000
   O     71.30000000    65.52000000    75.22000000
   C     72.53000000    68.21000000    73.78000000
   C     71.38000000    67.97000000    72.81000000
   C     69.90000000    68.17000000    73.12000000
   C     69.08000000    67.82000000    71.88000000
   N     67.69000000    67.59000000    72.30000000
   H     74.31000000    68.61000000    75.32000000
   H     71.80000000    67.83000000    75.77000000
   H     73.51000000    68.11000000    73.32000000
   H     72.54000000    69.27000000    74.05000000
   H     71.47000000    66.94000000    72.44000000
   H     71.61000000    68.53000000    71.91000000
   H     69.70000000    69.15000000    73.55000000
   H     69.69000000    67.44000000    73.90000000
   H     69.37000000    66.92000000    71.35000000
   H     69.11000000    68.70000000    71.23000000
   H     67.60000000    66.82000000    72.95000000
   H     67.20000000    68.44000000    72.56000000
   H     67.26000000    67.25000000    71.45000000
   N     73.33000000    65.21000000    74.33000000
   C     74.58000000    65.57000000    73.69000000
   C     75.54000000    64.40000000    73.87000000
   O     75.13000000    63.24000000    73.92000000
   C     74.44000000    65.67000000    72.17000000
   C     75.62000000    66.36000000    71.50000000
   O     76.17000000    67.39000000    71.96000000
   O     76.03000000    65.94000000    70.39000000
   H     72.92000000    64.30000000    74.19000000
   H     74.97000000    66.48000000    74.13000000
   H     73.69000000    66.38000000    71.82000000
   H     74.35000000    64.66000000    71.78000000
   N     76.83000000    64.75000000    73.81000000
   C     77.99000000    63.92000000    74.05000000
   C     79.26000000    64.67000000    74.44000000
   O     79.53000000    64.83000000    75.63000000
   H     77.02000000    65.74000000    73.77000000
   H     78.21000000    63.27000000    73.20000000
   H     77.78000000    63.34000000    74.95000000
   N     80.09000000    65.07000000    73.47000000
   C     81.44000000    65.55000000    73.68000000
   C     82.49000000    64.47000000    73.50000000
   O     82.24000000    63.46000000    72.84000000
   C     81.61000000    66.66000000    72.64000000
   C     80.43000000    67.63000000    72.67000000
   O     80.26000000    68.50000000    73.55000000
   O     79.55000000    67.57000000    71.79000000
   H     79.87000000    64.77000000    72.54000000
   H     81.59000000    65.99000000    74.67000000
   H     81.89000000    66.25000000    71.67000000
   H     82.46000000    67.25000000    73.00000000
   N     83.75000000    64.62000000    73.92000000
   C     84.31000000    65.76000000    74.61000000
   C     85.18000000    66.75000000    73.85000000
   O     85.73000000    67.63000000    74.51000000
   H     84.39000000    63.89000000    73.63000000
   H     85.01000000    65.44000000    75.38000000
   H     83.58000000    66.43000000    75.06000000
   N     85.51000000    66.52000000    72.58000000
   C     86.49000000    67.36000000    71.92000000
   C     87.88000000    67.39000000    72.55000000
   O     88.37000000    68.40000000    73.05000000
   C     85.97000000    68.77000000    71.68000000
   C     84.62000000    68.73000000    70.96000000
   O     86.91000000    69.36000000    70.81000000
   H     85.18000000    65.70000000    72.10000000
   H     86.70000000    67.00000000    70.91000000
   H     85.96000000    69.37000000    72.60000000
   H     87.32000000    70.08000000    71.30000000
   H     84.53000000    69.72000000    70.52000000
   H     84.63000000    68.04000000    70.12000000
   H     83.73000000    68.57000000    71.57000000
   N     88.35000000    66.16000000    72.77000000
   C     89.63000000    65.76000000    73.33000000
   C     90.93000000    66.19000000    72.67000000
   O     91.73000000    65.38000000    72.21000000
   C     89.70000000    66.18000000    74.80000000
   C     88.53000000    65.80000000    75.70000000
   C     91.00000000    65.73000000    75.46000000
   C     88.23000000    64.31000000    75.61000000
   H     87.76000000    65.44000000    72.38000000
   H     89.60000000    64.68000000    73.44000000
   H     89.78000000    67.27000000    74.84000000
   H     87.65000000    66.38000000    75.44000000
   H     88.81000000    66.02000000    76.74000000
   H     91.89000000    66.22000000    75.07000000
   H     91.16000000    66.00000000    76.50000000
   H     91.14000000    64.65000000    75.32000000
   H     87.53000000    63.98000000    76.37000000
   H     87.61000000    64.16000000    74.72000000
   H     89.13000000    63.70000000    75.61000000
   N     91.09000000    67.51000000    72.51000000
   C     92.20000000    68.18000000    71.86000000
   C     92.64000000    69.43000000    72.61000000
   O     91.93000000    69.99000000    73.44000000
   C     91.84000000    68.53000000    70.42000000
   C     90.50000000    69.23000000    70.21000000
   O     91.86000000    67.41000000    69.56000000
   H     90.34000000    68.05000000    72.90000000
   H     93.13000000    67.65000000    72.01000000
   H     92.59000000    69.26000000    70.11000000
   H     92.76000000    67.07000000    69.54000000
   H     90.39000000    69.98000000    71.00000000
   H     90.47000000    69.68000000    69.22000000
   H     89.75000000    68.45000000    70.28000000
   N     93.81000000    70.01000000    72.31000000
   C     94.27000000    71.28000000    72.84000000
   C     93.35000000    72.43000000    72.48000000
   O     92.74000000    72.48000000    71.41000000
   C     95.63000000    71.82000000    72.41000000
   C     96.73000000    70.78000000    72.62000000
   O     95.61000000    71.95000000    71.00000000
   H     94.23000000    69.67000000    71.45000000
   H     94.24000000    71.20000000    73.92000000
   H     95.85000000    72.80000000    72.83000000
   H     96.39000000    72.43000000    70.71000000
   H     96.92000000    70.59000000    73.67000000
   H     96.45000000    69.87000000    72.08000000
   H     97.64000000    71.25000000    72.25000000
   N     93.18000000    73.35000000    73.43000000
   C     92.29000000    74.49000000    73.39000000
   C     90.94000000    74.24000000    72.74000000
   O     90.76000000    74.64000000    71.60000000
   C     92.94000000    75.76000000    72.84000000
   C     94.10000000    76.16000000    73.76000000
   C     94.50000000    77.61000000    73.49000000
   C     95.55000000    77.83000000    74.58000000
   N     96.25000000    79.10000000    74.36000000
   H     93.59000000    73.04000000    74.30000000
   H     92.09000000    74.73000000    74.44000000
   H     92.09000000    76.43000000    72.89000000
   H     93.32000000    75.74000000    71.82000000
   H     94.93000000    75.48000000    73.57000000
   H     93.72000000    76.17000000    74.78000000
   H     93.71000000    78.33000000    73.69000000
   H     94.95000000    77.78000000    72.51000000
   H     96.26000000    77.00000000    74.49000000
   H     95.02000000    77.80000000    75.53000000
   H     96.66000000    79.22000000    73.44000000
   H     95.68000000    79.92000000    74.53000000
   H     97.01000000    79.24000000    75.01000000
   N     90.05000000    73.55000000    73.46000000
   C     88.69000000    73.25000000    73.06000000
   C     88.39000000    71.79000000    73.35000000
   O     87.55000000    71.16000000    72.71000000
   C     87.64000000    74.10000000    73.78000000
   C     87.57000000    75.48000000    73.12000000
   C     88.62000000    76.47000000    73.61000000
   O     88.99000000    76.45000000    74.80000000
   O     89.00000000    77.33000000    72.79000000
   H     90.33000000    73.37000000    74.41000000
   H     88.62000000    73.36000000    71.98000000
   H     87.87000000    74.22000000    74.84000000
   H     86.71000000    73.55000000    73.66000000
   H     86.59000000    75.88000000    73.39000000
   H     87.55000000    75.36000000    72.04000000
   N     89.07000000    71.04000000    74.22000000
   C     89.85000000    71.27000000    75.43000000
   H     90.74500000    71.84100000    75.18200000
   H     89.25100000    71.82900000    76.14900000
   H     90.14000000    70.31300000    75.86400000
   H     88.74000000    70.12000000    73.99000000
  Ca     77.73000000    69.10000000    72.74000000
   O     77.54000000    69.54000000    70.00000000
   H     77.13000000    70.11000000    69.36000000
   H     77.84000000    68.78000000    69.50000000
   O     79.56000000    70.89000000    71.73000000
   H     79.80000000    70.71000000    70.82000000
   H     80.00000000    71.71000000    71.93000000
   O     78.10000000    71.04000000    74.73000000
   H     77.87000000    70.88000000    75.65000000
   H     78.35000000    71.96000000    74.71000000
   O     76.06000000    71.25000000    72.62000000
   H     75.46000000    71.13000000    71.89000000
   H     75.81000000    72.09000000    73.01000000

Ca 1.00



