%chk=loop4.holoCaM.run100.water2.chk
%nprocshared=20
%mem=10GB
%nosave
#b3lyp/svp scf=(tight,noincore,xqc) Test 
#IOP(5/87=12) Density=Current Pop=(MK,readradii) iop(6/33=2) iop(6/42=6)

loop4.holoCaM.run100.water2 

   -3  1 
   C     37.01000000    42.64000000     5.23000000
   C     37.38000000    42.94000000     6.67000000
   O     37.15000000    44.02000000     7.22000000
   H     36.17500000    43.27400000     4.93000000
   H     37.86600000    42.83900000     4.58500000
   H     36.72100000    41.59300000     5.13900000
   N     37.98000000    41.99000000     7.38000000
   C     38.45000000    42.08000000     8.75000000
   C     39.78000000    42.80000000     8.83000000
   O     40.80000000    42.45000000     8.24000000
   C     38.51000000    40.68000000     9.37000000
   C     38.97000000    40.59000000    10.82000000
   O     39.67000000    39.63000000    11.19000000
   O     38.73000000    41.57000000    11.55000000
   H     38.15000000    41.13000000     6.88000000
   H     37.75000000    42.65000000     9.35000000
   H     39.07000000    39.97000000     8.76000000
   H     37.55000000    40.18000000     9.32000000
   N     39.90000000    43.85000000     9.65000000
   C     40.89000000    44.89000000     9.50000000
   C     41.87000000    44.86000000    10.66000000
   O     43.01000000    45.29000000    10.46000000
   C     40.17000000    46.22000000     9.30000000
   C     39.57000000    46.17000000     7.89000000
   C     41.05000000    47.46000000     9.41000000
   C     40.51000000    46.41000000     6.71000000
   H     39.03000000    44.12000000    10.10000000
   H     41.50000000    44.69000000     8.62000000
   H     39.29000000    46.35000000     9.94000000
   H     38.79000000    46.93000000     7.81000000
   H     39.11000000    45.20000000     7.73000000
   H     40.47000000    48.28000000     8.99000000
   H     41.28000000    47.67000000    10.45000000
   H     42.01000000    47.25000000     8.93000000
   H     39.93000000    46.53000000     5.79000000
   H     41.02000000    47.37000000     6.78000000
   H     41.19000000    45.57000000     6.58000000
   N     41.53000000    44.28000000    11.82000000
   C     42.35000000    44.25000000    13.01000000
   C     42.51000000    42.82000000    13.52000000
   O     43.03000000    42.66000000    14.62000000
   C     41.80000000    45.24000000    14.03000000
   C     40.33000000    44.99000000    14.34000000
   O     39.71000000    44.04000000    13.81000000
   O     39.71000000    45.71000000    15.15000000
   H     40.58000000    43.97000000    11.97000000
   H     43.29000000    44.69000000    12.69000000
   H     41.80000000    46.19000000    13.50000000
   H     42.40000000    45.28000000    14.94000000
   N     42.19000000    41.74000000    12.80000000
   C     42.62000000    40.37000000    12.99000000
   C     42.05000000    39.53000000    14.13000000
   O     42.76000000    38.86000000    14.88000000
   H     41.80000000    41.99000000    11.91000000
   H     43.70000000    40.36000000    13.15000000
   H     42.48000000    39.81000000    12.07000000
   N     40.72000000    39.58000000    14.22000000
   C     39.93000000    38.89000000    15.22000000
   C     38.87000000    37.94000000    14.69000000
   O     38.11000000    37.36000000    15.46000000
   C     39.43000000    39.86000000    16.29000000
   C     38.75000000    41.13000000    15.79000000
   O     38.78000000    42.19000000    16.45000000
   O     38.06000000    41.10000000    14.75000000
   H     40.27000000    39.94000000    13.39000000
   H     40.55000000    38.21000000    15.80000000
   H     40.31000000    40.12000000    16.87000000
   H     38.66000000    39.31000000    16.83000000
   N     38.68000000    37.80000000    13.37000000
   C     38.00000000    36.65000000    12.80000000
   C     36.52000000    36.97000000    12.68000000
   O     35.71000000    36.09000000    12.38000000
   H     39.27000000    38.37000000    12.78000000
   H     38.11000000    35.78000000    13.45000000
   H     38.38000000    36.46000000    11.80000000
   N     36.15000000    38.23000000    12.90000000
   C     34.79000000    38.73000000    12.83000000
   C     34.82000000    40.17000000    12.35000000
   O     35.87000000    40.81000000    12.31000000
   C     34.10000000    38.53000000    14.17000000
   C     34.88000000    39.28000000    15.25000000
   C     34.07000000    39.37000000    16.54000000
   N     34.39000000    40.26000000    17.47000000
   O     33.14000000    38.61000000    16.82000000
   H     36.96000000    38.85000000    12.91000000
   H     34.28000000    38.14000000    12.06000000
   H     33.98000000    37.48000000    14.42000000
   H     33.10000000    38.94000000    14.02000000
   H     35.15000000    40.29000000    14.97000000
   H     35.85000000    38.83000000    15.48000000
   H     35.08000000    40.96000000    17.21000000
   H     33.76000000    40.32000000    18.25000000
   N     33.68000000    40.66000000    11.84000000
   C     33.57000000    42.01000000    11.35000000
   C     32.64000000    42.88000000    12.19000000
   O     31.59000000    42.38000000    12.59000000
   C     33.26000000    42.18000000     9.86000000
   C     34.44000000    41.76000000     9.00000000
   C     31.94000000    41.55000000     9.43000000
   H     32.82000000    40.14000000    11.72000000
   H     34.57000000    42.40000000    11.54000000
   H     33.04000000    43.24000000     9.75000000
   H     34.53000000    40.68000000     8.88000000
   H     34.23000000    42.15000000     8.00000000
   H     35.38000000    42.22000000     9.31000000
   H     31.70000000    40.54000000     9.76000000
   H     31.16000000    42.25000000     9.74000000
   H     31.81000000    41.60000000     8.35000000
   N     32.91000000    44.16000000    12.44000000
   C     32.05000000    45.13000000    13.09000000
   C     31.48000000    46.04000000    12.01000000
   O     31.88000000    46.05000000    10.85000000
   C     32.86000000    45.79000000    14.21000000
   C     33.45000000    47.10000000    13.72000000
   N     34.59000000    47.15000000    13.02000000
   O     32.85000000    48.14000000    13.99000000
   H     33.71000000    44.60000000    11.99000000
   H     31.17000000    44.62000000    13.48000000
   H     33.63000000    45.14000000    14.63000000
   H     32.17000000    46.04000000    15.02000000
   H     35.14000000    46.31000000    12.91000000
   H     35.00000000    48.02000000    12.73000000
   N     30.51000000    46.87000000    12.37000000
   C     29.93000000    47.82000000    11.43000000
   C     30.97000000    48.70000000    10.75000000
   O     30.87000000    48.97000000     9.56000000
   C     28.99000000    48.76000000    12.17000000
   C     28.51000000    49.91000000    11.31000000
   C     27.61000000    49.62000000    10.27000000
   C     29.13000000    51.16000000    11.42000000
   C     27.23000000    50.67000000     9.43000000
   C     28.80000000    52.21000000    10.55000000
   C     27.85000000    51.93000000     9.54000000
   O     27.43000000    52.87000000     8.64000000
   H     30.24000000    46.98000000    13.34000000
   H     29.31000000    47.30000000    10.70000000
   H     29.56000000    49.16000000    13.01000000
   H     28.08000000    48.26000000    12.50000000
   H     27.20000000    48.63000000    10.17000000
   H     29.86000000    51.31000000    12.20000000
   H     26.50000000    50.49000000     8.65000000
   H     29.20000000    53.20000000    10.67000000
   H     27.81000000    53.74000000     8.76000000
   N     32.04000000    49.11000000    11.43000000
   C     33.02000000    50.01000000    10.85000000
   C     33.96000000    49.30000000     9.89000000
   O     34.69000000    49.97000000     9.16000000
   C     33.66000000    50.75000000    12.02000000
   C     32.75000000    51.52000000    12.98000000
   C     32.12000000    52.78000000    12.39000000
   O     32.40000000    53.25000000    11.27000000
   O     31.36000000    53.38000000    13.18000000
   H     32.32000000    48.69000000    12.31000000
   H     32.54000000    50.75000000    10.20000000
   H     34.42000000    51.46000000    11.67000000
   H     34.26000000    50.01000000    12.54000000
   H     33.39000000    51.75000000    13.83000000
   H     31.98000000    50.85000000    13.33000000
   N     33.94000000    47.97000000     9.82000000
   C     34.42000000    47.17000000     8.71000000
   C     33.35000000    46.83000000     7.68000000
   O     33.64000000    46.82000000     6.49000000
   C     34.99000000    45.94000000     9.41000000
   C     36.25000000    46.24000000    10.22000000
   C     36.51000000    45.13000000    11.23000000
   O     35.69000000    44.67000000    12.04000000
   O     37.69000000    44.73000000    11.32000000
   H     33.31000000    47.51000000    10.46000000
   H     35.29000000    47.69000000     8.30000000
   H     35.19000000    45.22000000     8.62000000
   H     34.19000000    45.60000000    10.06000000
   H     36.10000000    47.23000000    10.66000000
   H     37.09000000    46.32000000     9.52000000
   N     32.13000000    46.52000000     8.11000000
   C     31.00000000    46.27000000     7.24000000
   H     30.19300000    46.96100000     7.48500000
   H     31.30000000    46.41600000     6.20200000
   H     30.65400000    45.24500000     7.37800000
   H     31.92000000    46.34000000     9.08000000
  Ca     37.46000000    43.04000000    13.26000000
   O     37.03000000    45.41000000    14.54000000
   H     37.83000000    45.86000000    14.80000000
   H     36.37000000    45.73000000    15.15000000
   O     35.15000000    42.83000000    14.82000000
   H     34.23000000    42.73000000    15.06000000
   H     35.64000000    42.63000000    15.61000000

Ca 1.00



