%chk=loop4.apoCaM-CA-Ng.Init31.run85.water4.chk
%nprocshared=20
%mem=10GB
%nosave
#b3lyp/svp scf=(tight,noincore,xqc) Test 
#IOP(5/87=12) Density=Current Pop=(MK,readradii) iop(6/33=2) iop(6/42=6)

loop4.apoCaM-CA-Ng.Init31.run85.water4 

   -3  1 
   C     82.87000000    51.90000000    44.05000000
   C     83.74000000    52.76000000    43.15000000
   O     83.29000000    53.60000000    42.37000000
   H     81.90300000    51.73800000    43.57300000
   H     83.35700000    50.93900000    44.21700000
   H     82.72400000    52.40500000    45.00500000
   N     85.07000000    52.75000000    43.15000000
   C     85.99000000    51.88000000    43.86000000
   C     86.27000000    52.42000000    45.25000000
   O     86.30000000    51.67000000    46.22000000
   C     87.17000000    51.67000000    42.91000000
   C     88.44000000    51.05000000    43.47000000
   O     89.44000000    51.78000000    43.66000000
   O     88.41000000    49.91000000    43.97000000
   H     85.36000000    53.37000000    42.41000000
   H     85.63000000    50.85000000    43.92000000
   H     87.48000000    52.67000000    42.60000000
   H     86.78000000    51.10000000    42.07000000
   N     86.38000000    53.74000000    45.43000000
   C     85.89000000    54.41000000    46.62000000
   C     86.56000000    55.77000000    46.75000000
   O     86.62000000    56.24000000    47.88000000
   C     84.38000000    54.63000000    46.62000000
   C     83.76000000    54.94000000    47.98000000
   C     83.80000000    55.43000000    45.45000000
   C     82.25000000    54.99000000    48.16000000
   H     86.27000000    54.34000000    44.63000000
   H     86.23000000    53.79000000    47.45000000
   H     84.01000000    53.62000000    46.45000000
   H     84.09000000    55.89000000    48.38000000
   H     84.05000000    54.07000000    48.58000000
   H     84.34000000    55.22000000    44.53000000
   H     82.73000000    55.27000000    45.30000000
   H     83.90000000    56.47000000    45.75000000
   H     82.03000000    54.82000000    49.21000000
   H     81.82000000    55.94000000    47.84000000
   H     81.71000000    54.29000000    47.53000000
   N     87.16000000    56.39000000    45.73000000
   C     87.60000000    57.77000000    45.76000000
   C     89.11000000    57.87000000    45.94000000
   O     89.65000000    58.89000000    46.36000000
   C     86.94000000    58.52000000    44.60000000
   C     86.71000000    59.99000000    44.92000000
   O     85.69000000    60.27000000    45.59000000
   O     87.59000000    60.80000000    44.55000000
   H     87.35000000    55.86000000    44.89000000
   H     87.17000000    58.28000000    46.62000000
   H     86.03000000    57.99000000    44.35000000
   H     87.51000000    58.28000000    43.70000000
   N     89.78000000    56.72000000    45.84000000
   C     91.18000000    56.53000000    46.13000000
   C     91.99000000    56.60000000    44.84000000
   O     91.53000000    56.79000000    43.71000000
   H     89.21000000    55.95000000    45.51000000
   H     91.23000000    55.52000000    46.55000000
   H     91.52000000    57.21000000    46.91000000
   N     93.29000000    56.50000000    45.14000000
   C     94.37000000    56.40000000    44.18000000
   C     95.49000000    57.39000000    44.46000000
   O     95.66000000    57.84000000    45.60000000
   C     94.83000000    54.95000000    44.07000000
   C     94.92000000    54.20000000    45.39000000
   O     94.05000000    53.38000000    45.77000000
   O     95.99000000    54.20000000    46.04000000
   H     93.51000000    56.40000000    46.12000000
   H     93.99000000    56.71000000    43.21000000
   H     95.77000000    54.89000000    43.54000000
   H     94.09000000    54.45000000    43.44000000
   N     96.43000000    57.67000000    43.56000000
   C     96.43000000    57.39000000    42.14000000
   C     97.63000000    57.96000000    41.40000000
   O     97.87000000    59.15000000    41.58000000
   H     97.24000000    58.18000000    43.90000000
   H     95.56000000    57.90000000    41.72000000
   H     96.32000000    56.32000000    41.97000000
   N     98.45000000    57.19000000    40.69000000
   C     98.44000000    55.77000000    40.41000000
   C     97.22000000    55.23000000    39.69000000
   O     96.22000000    55.94000000    39.67000000
   C     98.91000000    54.90000000    41.58000000
   C    100.43000000    54.92000000    41.73000000
   C    101.12000000    54.14000000    40.62000000
   N    102.44000000    53.97000000    40.67000000
   O    100.54000000    53.56000000    39.70000000
   H     99.13000000    57.64000000    40.10000000
   H     99.16000000    55.68000000    39.60000000
   H     98.57000000    53.87000000    41.51000000
   H     98.51000000    55.35000000    42.49000000
   H    100.74000000    54.50000000    42.69000000
   H    100.87000000    55.92000000    41.76000000
   H    102.99000000    54.39000000    41.40000000
   H    102.70000000    53.32000000    39.94000000
   N     97.38000000    54.14000000    38.93000000
   C     96.26000000    53.50000000    38.27000000
   C     96.56000000    52.90000000    36.90000000
   O     97.71000000    52.54000000    36.65000000
   C     95.46000000    52.53000000    39.13000000
   C     94.64000000    53.20000000    40.23000000
   C     96.37000000    51.46000000    39.72000000
   H     98.32000000    53.77000000    38.85000000
   H     95.54000000    54.29000000    38.07000000
   H     94.77000000    52.01000000    38.47000000
   H     94.00000000    52.47000000    40.73000000
   H     95.36000000    53.69000000    40.87000000
   H     94.09000000    54.02000000    39.78000000
   H     97.16000000    51.88000000    40.34000000
   H     95.90000000    50.85000000    40.50000000
   H     96.84000000    50.85000000    38.95000000
   N     95.54000000    52.69000000    36.07000000
   C     95.64000000    52.16000000    34.73000000
   C     95.44000000    50.65000000    34.72000000
   O     94.71000000    50.08000000    33.90000000
   C     94.67000000    52.89000000    33.81000000
   C     94.97000000    54.38000000    33.74000000
   N     96.14000000    54.69000000    33.18000000
   O     94.27000000    55.26000000    34.23000000
   H     94.69000000    53.17000000    36.29000000
   H     96.65000000    52.31000000    34.35000000
   H     93.64000000    52.65000000    34.07000000
   H     94.87000000    52.47000000    32.82000000
   H     96.90000000    54.04000000    33.07000000
   H     96.37000000    55.68000000    33.25000000
   N     96.04000000    49.97000000    35.70000000
   C     95.79000000    48.57000000    35.95000000
   C     94.68000000    48.37000000    36.98000000
   O     94.52000000    49.11000000    37.95000000
   C     97.11000000    47.90000000    36.31000000
   C     97.73000000    48.29000000    37.63000000
   C     97.51000000    47.64000000    38.84000000
   C     98.56000000    49.43000000    37.68000000
   C     98.18000000    47.86000000    40.05000000
   C     99.26000000    49.68000000    38.86000000
   C     99.14000000    48.89000000    40.03000000
   O     99.78000000    49.24000000    41.19000000
   H     96.64000000    50.45000000    36.35000000
   H     95.47000000    48.08000000    35.03000000
   H     97.88000000    48.02000000    35.54000000
   H     96.98000000    46.82000000    36.33000000
   H     96.78000000    46.85000000    38.97000000
   H     98.85000000    49.97000000    36.79000000
   H     97.96000000    47.29000000    40.93000000
   H     99.94000000    50.51000000    38.84000000
   H     99.36000000    48.95000000    42.00000000
   N     93.90000000    47.31000000    36.80000000
   C     92.99000000    46.82000000    37.81000000
   C     91.69000000    47.62000000    37.90000000
   O     90.85000000    47.51000000    37.01000000
   C     92.78000000    45.33000000    37.59000000
   C     93.82000000    44.47000000    38.30000000
   C     93.74000000    42.95000000    38.24000000
   O     93.00000000    42.39000000    39.07000000
   O     94.37000000    42.33000000    37.36000000
   H     93.97000000    46.80000000    35.93000000
   H     93.50000000    46.81000000    38.77000000
   H     92.77000000    45.05000000    36.53000000
   H     91.85000000    44.99000000    38.04000000
   H     93.98000000    44.81000000    39.33000000
   H     94.78000000    44.70000000    37.83000000
   N     91.39000000    48.20000000    39.06000000
   C     90.11000000    48.80000000    39.37000000
   C     90.07000000    50.23000000    38.85000000
   O     89.38000000    51.06000000    39.45000000
   C     89.72000000    48.66000000    40.84000000
   C     89.73000000    47.22000000    41.33000000
   C     89.16000000    46.90000000    42.71000000
   O     87.92000000    46.83000000    42.84000000
   O     89.88000000    47.03000000    43.72000000
   H     92.00000000    48.05000000    39.85000000
   H     89.31000000    48.32000000    38.81000000
   H     88.69000000    48.99000000    40.94000000
   H     90.45000000    49.24000000    41.42000000
   H     90.77000000    46.91000000    41.34000000
   H     89.19000000    46.60000000    40.61000000
   N     90.77000000    50.45000000    37.74000000
   C     90.67000000    51.78000000    37.16000000
   H     89.94500000    52.36800000    37.72300000
   H     91.64300000    52.26900000    37.20100000
   H     90.34600000    51.70100000    36.12200000
   H     91.26000000    49.70000000    37.26000000
  Ca     87.93000000    47.80000000    45.33000000
   O     90.33000000    47.83000000    46.62000000
   H     90.59000000    48.54000000    47.22000000
   H     91.00000000    47.16000000    46.75000000
   O     87.25000000    47.56000000    48.01000000
   H     87.93000000    47.61000000    48.67000000
   H     86.45000000    47.85000000    48.46000000
   O     88.36000000    50.15000000    46.71000000
   H     89.12000000    50.72000000    46.59000000
   H     87.60000000    50.70000000    46.51000000
   O     88.66000000    45.19000000    46.13000000
   H     89.40000000    45.00000000    45.56000000
   H     88.39000000    44.34000000    46.47000000

Ca 1.00



