%chk=loop4.holoCaM.run51.water1.chk
%nprocshared=20
%mem=10GB
%nosave
#b3lyp/svp scf=(tight,noincore,xqc) Test 
#IOP(5/87=12) Density=Current Pop=(MK,readradii) iop(6/33=2) iop(6/42=6)

loop4.holoCaM.run51.water1 

   -3  1 
   C     91.92000000    56.19000000     5.20900000
   C     91.38000000    57.59000000     5.00900000
   O     91.04000000    57.98000000     3.89900000
   H     92.87100000    56.24000000     5.73800000
   H     91.21000000    55.60600000     5.79400000
   H     92.06900000    55.71500000     4.23900000
   N     91.34000000    58.46000000     6.02900000
   C     90.54000000    59.66000000     5.92900000
   C     91.21000000    60.68000000     5.01900000
   O     92.38000000    60.94000000     5.25900000
   C     90.13000000    60.16000000     7.30900000
   C     88.80000000    60.89000000     7.29900000
   O     87.74000000    60.43000000     7.77900000
   O     88.75000000    61.90000000     6.56900000
   H     91.52000000    58.03000000     6.92900000
   H     89.60000000    59.43000000     5.41900000
   H     90.89000000    60.88000000     7.59900000
   H     90.06000000    59.35000000     8.03900000
   N     90.56000000    61.26000000     3.99900000
   C     90.98000000    62.51000000     3.38900000
   C     90.96000000    63.78000000     4.22900000
   O     91.81000000    64.65000000     4.03900000
   C     90.29000000    62.69000000     2.03900000
   C     88.76000000    62.74000000     2.08900000
   C     90.69000000    61.53000000     1.12900000
   C     88.15000000    63.62000000     1.00900000
   H     89.63000000    60.95000000     3.76900000
   H     92.02000000    62.30000000     3.11900000
   H     90.66000000    63.64000000     1.67900000
   H     88.50000000    63.12000000     3.07900000
   H     88.36000000    61.73000000     2.00900000
   H     90.42000000    60.58000000     1.58900000
   H     90.19000000    61.55000000     0.15900000
   H     91.76000000    61.53000000     0.93900000
   H     88.44000000    64.67000000     0.90900000
   H     88.35000000    63.18000000     0.02900000
   H     87.07000000    63.71000000     1.13900000
   N     90.12000000    63.93000000     5.24900000
   C     89.92000000    65.18000000     5.96900000
   C     90.13000000    65.10000000     7.46900000
   O     90.12000000    66.10000000     8.18900000
   C     88.59000000    65.81000000     5.57900000
   C     87.36000000    64.94000000     5.78900000
   O     86.85000000    64.31000000     4.84900000
   O     86.99000000    64.63000000     6.94900000
   H     89.43000000    63.22000000     5.46900000
   H     90.71000000    65.85000000     5.61900000
   H     88.68000000    66.11000000     4.53900000
   H     88.48000000    66.70000000     6.20900000
   N     90.40000000    63.94000000     8.05900000
   C     90.95000000    63.74000000     9.38900000
   C     89.97000000    63.47000000    10.50900000
   O     90.38000000    63.41000000    11.66900000
   H     90.29000000    63.12000000     7.47900000
   H     91.58000000    64.62000000     9.57900000
   H     91.58000000    62.88000000     9.16900000
   N     88.65000000    63.37000000    10.30900000
   C     87.66000000    63.19000000    11.34900000
   C     87.43000000    61.73000000    11.68900000
   O     87.09000000    61.39000000    12.81900000
   C     86.38000000    63.95000000    11.02900000
   C     85.62000000    63.56000000     9.76900000
   O     84.58000000    64.18000000     9.46900000
   O     86.09000000    62.69000000     8.99900000
   H     88.32000000    63.38000000     9.34900000
   H     88.10000000    63.68000000    12.21900000
   H     86.54000000    65.02000000    11.14900000
   H     85.66000000    63.76000000    11.82900000
   N     87.61000000    60.83000000    10.71900000
   C     87.44000000    59.40000000    10.87900000
   C     86.01000000    58.91000000    10.65900000
   O     85.57000000    58.01000000    11.35900000
   H     87.63000000    61.23000000     9.78900000
   H     87.67000000    59.19000000    11.91900000
   H     88.19000000    58.85000000    10.30900000
   N     85.32000000    59.48000000     9.66900000
   C     84.00000000    59.13000000     9.20900000
   C     83.93000000    59.42000000     7.71900000
   O     84.51000000    60.38000000     7.21900000
   C     82.90000000    59.84000000     9.99900000
   C     83.11000000    61.34000000    10.15900000
   C     81.88000000    62.08000000    10.67900000
   N     81.87000000    63.41000000    10.56900000
   O     80.92000000    61.54000000    11.22900000
   H     85.79000000    60.30000000     9.28900000
   H     83.95000000    58.05000000     9.33900000
   H     82.91000000    59.44000000    11.00900000
   H     81.95000000    59.65000000     9.48900000
   H     83.36000000    61.78000000     9.19900000
   H     83.93000000    61.54000000    10.84900000
   H     82.69000000    63.95000000    10.31900000
   H     81.02000000    63.87000000    10.83900000
   N     83.25000000    58.55000000     6.96900000
   C     83.02000000    58.71000000     5.54900000
   C     81.68000000    59.38000000     5.29900000
   O     80.60000000    58.86000000     5.56900000
   C     83.19000000    57.43000000     4.71900000
   C     84.63000000    56.94000000     4.81900000
   C     82.36000000    56.19000000     5.00900000
   H     82.63000000    57.93000000     7.46900000
   H     83.71000000    59.44000000     5.12900000
   H     83.00000000    57.70000000     3.67900000
   H     84.71000000    56.59000000     5.84900000
   H     84.72000000    56.15000000     4.07900000
   H     85.25000000    57.78000000     4.50900000
   H     82.50000000    55.78000000     6.00900000
   H     81.31000000    56.35000000     4.75900000
   H     82.62000000    55.35000000     4.35900000
   N     81.76000000    60.54000000     4.63900000
   C     80.60000000    61.15000000     4.03900000
   C     80.24000000    60.47000000     2.72900000
   O     80.94000000    59.54000000     2.32900000
   C     80.86000000    62.66000000     3.98900000
   C     81.39000000    63.14000000     2.64900000
   N     82.72000000    63.27000000     2.57900000
   O     80.71000000    63.52000000     1.69900000
   H     82.62000000    61.07000000     4.58900000
   H     79.74000000    60.97000000     4.68900000
   H     81.47000000    63.00000000     4.82900000
   H     79.93000000    63.12000000     4.31900000
   H     83.25000000    63.00000000     3.38900000
   H     83.16000000    63.46000000     1.68900000
   N     79.24000000    60.95000000     1.96900000
   C     78.81000000    60.21000000     0.80900000
   C     79.85000000    60.02000000    -0.28100000
   O     80.19000000    58.97000000    -0.82100000
   C     77.51000000    60.73000000     0.18900000
   C     76.99000000    59.99000000    -1.02100000
   C     76.20000000    58.84000000    -1.01100000
   C     77.41000000    60.38000000    -2.30100000
   C     75.70000000    58.16000000    -2.12100000
   C     76.98000000    59.75000000    -3.47100000
   C     76.11000000    58.65000000    -3.38100000
   O     75.76000000    57.91000000    -4.46100000
   H     78.70000000    61.69000000     2.38900000
   H     78.50000000    59.22000000     1.14900000
   H     77.60000000    61.76000000    -0.13100000
   H     76.74000000    60.69000000     0.95900000
   H     75.90000000    58.43000000    -0.05100000
   H     78.09000000    61.22000000    -2.39100000
   H     75.21000000    57.20000000    -1.99100000
   H     77.30000000    60.10000000    -4.44100000
   H     76.22000000    58.20000000    -5.25100000
   N     80.51000000    61.17000000    -0.50100000
   C     81.60000000    61.37000000    -1.42100000
   C     82.88000000    60.64000000    -1.03100000
   O     83.71000000    60.54000000    -1.93100000
   C     81.90000000    62.85000000    -1.67100000
   C     80.94000000    63.31000000    -2.76100000
   C     81.37000000    64.70000000    -3.23100000
   O     82.16000000    64.64000000    -4.20100000
   O     80.85000000    65.74000000    -2.79100000
   H     80.33000000    61.97000000     0.07900000
   H     81.30000000    60.95000000    -2.38100000
   H     82.91000000    63.00000000    -2.04100000
   H     81.77000000    63.41000000    -0.75100000
   H     79.92000000    63.35000000    -2.38100000
   H     81.04000000    62.77000000    -3.70100000
   N     82.98000000    60.06000000     0.16900000
   C     84.04000000    59.18000000     0.59900000
   C     83.62000000    57.72000000     0.52900000
   O     84.41000000    56.79000000     0.36900000
   C     84.53000000    59.52000000     2.00900000
   C     85.30000000    60.82000000     2.24900000
   C     85.27000000    61.06000000     3.74900000
   O     84.40000000    61.71000000     4.36900000
   O     86.29000000    60.68000000     4.35900000
   H     82.15000000    60.14000000     0.73900000
   H     84.89000000    59.29000000    -0.07100000
   H     85.17000000    58.73000000     2.40900000
   H     83.64000000    59.66000000     2.61900000
   H     84.68000000    61.57000000     1.73900000
   H     86.25000000    60.71000000     1.72900000
   N     82.30000000    57.53000000     0.66900000
   C     81.63000000    56.26000000     0.80900000
   H     80.66700000    56.30000000     0.30000000
   H     82.24300000    55.47500000     0.36600000
   H     81.47200000    56.04600000     1.86600000
   H     81.73000000    58.35000000     0.78900000
  Ca     86.21000000    62.19000000     6.41000000
   O     84.12000000    63.79000000     6.81000000
   H     84.29000000    64.10000000     7.70000000
   H     84.00000000    64.59000000     6.30000000

Ca 1.00



