%chk=loop3.apoCaM-CA-Ng.Init293.run98.water5.chk
%nprocshared=20
%mem=10GB
%nosave
#b3lyp/svp scf=(tight,noincore,xqc) Test 
#IOP(5/87=12) Density=Current Pop=(MK,readradii) iop(6/33=2) iop(6/42=6)

loop3.apoCaM-CA-Ng.Init293.run98.water5 

   0  1 
   C     99.38000000    92.08000000    25.45000000
   C    100.74000000    92.77000000    25.34000000
   O    100.78000000    93.89000000    24.84000000
   H     98.64600000    92.62800000    24.85900000
   H     99.45800000    91.05900000    25.07600000
   H     99.06500000    92.06200000    26.49300000
   N    101.80000000    92.24000000    25.95000000
   C    103.20000000    92.60000000    25.93000000
   C    103.84000000    92.31000000    27.29000000
   O    103.44000000    91.38000000    27.98000000
   C    103.84000000    91.93000000    24.72000000
   C    105.25000000    92.48000000    24.51000000
   O    105.42000000    93.70000000    24.75000000
   O    106.10000000    91.67000000    24.10000000
   H    101.75000000    91.31000000    26.36000000
   H    103.35000000    93.66000000    25.77000000
   H    103.37000000    92.17000000    23.76000000
   H    103.79000000    90.84000000    24.72000000
   N    104.89000000    93.05000000    27.66000000
   C    105.81000000    92.81000000    28.76000000
   C    106.71000000    91.61000000    28.54000000
   O    106.27000000    90.62000000    27.95000000
   C    104.96000000    92.84000000    30.03000000
   C    105.73000000    93.19000000    31.30000000
   C    105.23000000    92.51000000    32.57000000
   C    105.66000000    91.05000000    32.66000000
   N    107.12000000    90.92000000    32.78000000
   H    105.17000000    93.82000000    27.07000000
   H    106.55000000    93.61000000    28.71000000
   H    104.59000000    91.82000000    30.10000000
   H    104.14000000    93.54000000    29.86000000
   H    105.69000000    94.25000000    31.55000000
   H    106.77000000    92.86000000    31.32000000
   H    104.14000000    92.42000000    32.51000000
   H    105.52000000    93.07000000    33.46000000
   H    105.30000000    90.57000000    31.75000000
   H    105.07000000    90.53000000    33.41000000
   H    107.54000000    91.74000000    33.19000000
   H    107.38000000    90.13000000    33.36000000
   H    107.60000000    90.76000000    31.91000000
   N    107.90000000    91.57000000    29.14000000
   C    108.88000000    90.50000000    29.00000000
   C    108.64000000    89.31000000    29.91000000
   O    107.71000000    89.32000000    30.71000000
   C    110.29000000    91.05000000    29.23000000
   C    110.44000000    91.72000000    30.59000000
   O    109.62000000    91.60000000    31.52000000
   O    111.47000000    92.40000000    30.78000000
   H    108.20000000    92.36000000    29.69000000
   H    108.80000000    90.11000000    27.98000000
   H    110.58000000    91.67000000    28.38000000
   H    110.89000000    90.14000000    29.23000000
   N    109.35000000    88.20000000    29.70000000
   C    109.24000000    86.98000000    30.47000000
   C    109.97000000    87.11000000    31.80000000
   O    110.89000000    87.90000000    32.03000000
   H    110.14000000    88.22000000    29.07000000
   H    109.65000000    86.12000000    29.94000000
   H    108.20000000    86.79000000    30.70000000
   N    109.59000000    86.19000000    32.70000000
   C    110.02000000    85.96000000    34.06000000
   C    110.20000000    84.49000000    34.40000000
   O    109.90000000    84.03000000    35.50000000
   C    109.17000000    86.69000000    35.11000000
   C    109.23000000    88.21000000    35.04000000
   N    110.25000000    88.90000000    35.56000000
   O    108.32000000    88.81000000    34.47000000
   H    108.92000000    85.54000000    32.31000000
   H    111.04000000    86.32000000    34.19000000
   H    109.59000000    86.41000000    36.08000000
   H    108.13000000    86.37000000    35.02000000
   H    110.98000000    88.37000000    36.03000000
   H    110.13000000    89.90000000    35.59000000
   N    110.69000000    83.69000000    33.45000000
   C    110.90000000    82.25000000    33.38000000
   C    109.57000000    81.56000000    33.67000000
   O    108.63000000    81.92000000    32.97000000
   H    110.84000000    84.16000000    32.57000000
   H    111.65000000    81.76000000    34.00000000
   H    111.21000000    81.97000000    32.38000000
   N    109.50000000    80.68000000    34.67000000
   C    108.31000000    80.07000000    35.24000000
   C    107.42000000    81.06000000    35.98000000
   O    106.52000000    80.66000000    36.72000000
   C    107.57000000    79.30000000    34.15000000
   C    106.61000000    78.24000000    34.64000000
   C    106.96000000    77.07000000    35.32000000
   C    105.28000000    78.37000000    34.23000000
   C    106.03000000    76.06000000    35.63000000
   C    104.37000000    77.34000000    34.48000000
   C    104.68000000    76.22000000    35.27000000
   O    103.87000000    75.14000000    35.49000000
   H    110.37000000    80.44000000    35.12000000
   H    108.65000000    79.43000000    36.05000000
   H    108.35000000    78.65000000    33.75000000
   H    107.21000000    79.97000000    33.38000000
   H    108.00000000    76.99000000    35.60000000
   H    105.04000000    79.17000000    33.55000000
   H    106.31000000    75.22000000    36.25000000
   H    103.38000000    77.44000000    34.06000000
   H    103.00000000    75.31000000    35.14000000
   N    107.53000000    82.35000000    35.65000000
   C    106.79000000    83.48000000    36.18000000
   C    107.09000000    83.61000000    37.67000000
   O    107.73000000    84.58000000    38.06000000
   C    105.32000000    83.54000000    35.79000000
   C    105.10000000    83.35000000    34.30000000
   C    104.80000000    84.91000000    36.24000000
   C    105.46000000    84.52000000    33.38000000
   H    108.34000000    82.66000000    35.14000000
   H    107.22000000    84.38000000    35.74000000
   H    104.77000000    82.76000000    36.33000000
   H    104.03000000    83.13000000    34.24000000
   H    105.65000000    82.46000000    34.01000000
   H    103.84000000    85.16000000    35.81000000
   H    104.60000000    84.99000000    37.31000000
   H    105.39000000    85.76000000    35.90000000
   H    105.38000000    84.15000000    32.36000000
   H    104.63000000    85.23000000    33.34000000
   H    106.43000000    84.99000000    33.53000000
   N    106.60000000    82.73000000    38.55000000
   C    106.50000000    82.84000000    39.99000000
   C    105.72000000    84.06000000    40.46000000
   O    106.10000000    84.70000000    41.44000000
   C    105.90000000    81.57000000    40.57000000
   O    104.96000000    81.05000000    39.66000000
   H    106.01000000    82.00000000    38.18000000
   H    107.45000000    82.89000000    40.52000000
   H    105.40000000    81.73000000    41.53000000
   H    106.71000000    80.89000000    40.84000000
   H    104.87000000    80.12000000    39.87000000
   N    104.59000000    84.37000000    39.82000000
   C    103.76000000    85.55000000    39.99000000
   C    104.41000000    86.91000000    39.75000000
   O    103.89000000    87.94000000    40.17000000
   C    102.99000000    85.56000000    41.31000000
   H    104.28000000    83.74000000    39.10000000
   H    103.03000000    85.35000000    39.21000000
   H    103.69000000    85.65000000    42.13000000
   H    102.23000000    86.34000000    41.35000000
   H    102.46000000    84.63000000    41.53000000
   N    105.66000000    87.04000000    39.30000000
   C    106.34000000    88.29000000    39.03000000
   C    105.76000000    89.24000000    37.99000000
   O    105.24000000    88.79000000    36.98000000
   C    107.81000000    88.06000000    38.67000000
   H    106.23000000    86.23000000    39.09000000
   H    106.33000000    88.80000000    39.99000000
   H    108.34000000    89.02000000    38.64000000
   H    108.26000000    87.36000000    39.37000000
   H    107.97000000    87.75000000    37.64000000
   N    105.85000000    90.53000000    38.31000000
   C    105.46000000    91.57000000    37.38000000
   C    103.96000000    91.53000000    37.17000000
   O    103.45000000    92.22000000    36.29000000
   C    106.40000000    91.86000000    36.21000000
   C    107.79000000    92.27000000    36.70000000
   C    108.79000000    92.26000000    35.56000000
   O    109.91000000    91.72000000    35.70000000
   O    108.49000000    92.73000000    34.44000000
   H    106.55000000    90.78000000    39.00000000
   H    105.47000000    92.55000000    37.85000000
   H    106.03000000    92.64000000    35.55000000
   H    106.59000000    90.94000000    35.65000000
   H    108.09000000    91.58000000    37.49000000
   H    107.59000000    93.24000000    37.15000000
   N    103.08000000    90.82000000    37.88000000
   C    101.67000000    90.76000000    37.56000000
   H    101.14500000    91.55900000    38.08300000
   H    101.53500000    90.88000000    36.48500000
   H    101.26700000    89.79700000    37.87200000
   H    103.46000000    90.15000000    38.54000000
  Ca    110.86700000    92.95000000    33.45000000
   O    109.14700000    94.65000000    32.27000000
   H    108.84700000    94.64000000    31.36000000
   H    109.27700000    95.58000000    32.46000000
   O    111.75700000    90.45000000    33.10000000
   H    112.48700000    90.19000000    33.66000000
   H    111.42700000    89.63000000    32.73000000
   O    113.27700000    92.72000000    34.52000000
   H    113.98700000    93.04000000    33.96000000
   H    113.61700000    92.82000000    35.41000000
   O    112.04700000    95.36000000    32.85000000
   H    112.85700000    95.86000000    32.81000000
   H    111.35700000    96.01000000    32.77000000
   O    111.04700000    94.65000000    35.54000000
   H    110.39700000    95.32000000    35.76000000
   H    111.88700000    95.05000000    35.77000000

Ca 1.00



