%chk=loop2.holoCaM.run56.water2.chk
%nprocshared=20
%mem=10GB
%nosave
#b3lyp/svp scf=(tight,noincore,xqc) Test 
#IOP(5/87=12) Density=Current Pop=(MK,readradii) iop(6/33=2) iop(6/42=6)

loop2.holoCaM.run56.water2 

   -2  1 
   C     49.14000000    58.26000000    84.52300000
   C     47.70000000    57.93000000    84.86300000
   O     47.28000000    58.05000000    86.01300000
   H     49.78200000    57.43100000    84.82000000
   H     49.23200000    58.42400000    83.44900000
   H     49.44200000    59.16100000    85.05600000
   N     46.96000000    57.38000000    83.89300000
   C     45.60000000    56.94000000    84.13300000
   C     45.41000000    55.77000000    85.08300000
   O     46.22000000    54.85000000    85.10300000
   C     45.02000000    56.53000000    82.78300000
   C     43.50000000    56.63000000    82.72300000
   O     42.87000000    55.61000000    82.36300000
   O     42.92000000    57.61000000    83.23300000
   H     47.40000000    57.26000000    82.99300000
   H     44.99000000    57.72000000    84.58300000
   H     45.28000000    55.51000000    82.52300000
   H     45.35000000    57.21000000    81.99300000
   N     44.22000000    55.75000000    85.69300000
   C     43.77000000    54.77000000    86.66300000
   C     42.29000000    54.39000000    86.60300000
   O     41.83000000    53.65000000    87.46300000
   C     44.10000000    55.27000000    88.06300000
   H     43.70000000    56.62000000    85.65300000
   H     44.32000000    53.83000000    86.59300000
   H     45.11000000    55.68000000    88.02300000
   H     43.49000000    56.14000000    88.34300000
   H     43.97000000    54.57000000    88.88300000
   N     41.61000000    54.87000000    85.55300000
   C     40.18000000    54.65000000    85.46300000
   C     39.69000000    54.13000000    84.11300000
   O     38.52000000    53.81000000    83.91300000
   C     39.54000000    55.92000000    86.01300000
   C     40.02000000    57.17000000    85.28300000
   O     39.43000000    57.50000000    84.23300000
   O     41.00000000    57.81000000    85.73300000
   H     42.09000000    55.50000000    84.94300000
   H     39.96000000    53.88000000    86.20300000
   H     39.90000000    56.01000000    87.03300000
   H     38.45000000    55.85000000    85.92300000
   N     40.49000000    54.11000000    83.04300000
   C     40.13000000    53.47000000    81.80300000
   C     39.23000000    54.23000000    80.84300000
   O     38.90000000    53.73000000    79.77300000
   H     41.48000000    54.26000000    83.13300000
   H     39.53000000    52.59000000    82.03300000
   H     41.01000000    53.12000000    81.25300000
   N     38.99000000    55.51000000    81.11300000
   C     38.19000000    56.32000000    80.21300000
   C     38.97000000    57.03000000    79.11300000
   O     38.47000000    57.84000000    78.33300000
   C     37.45000000    57.25000000    81.17300000
   C     36.59000000    56.56000000    82.23300000
   N     36.90000000    56.78000000    83.51300000
   O     35.74000000    55.71000000    81.98300000
   H     39.31000000    55.84000000    82.01300000
   H     37.54000000    55.67000000    79.62300000
   H     36.70000000    57.77000000    80.58300000
   H     38.13000000    57.96000000    81.63300000
   H     37.67000000    57.36000000    83.81300000
   H     36.32000000    56.34000000    84.20300000
   N     40.27000000    56.81000000    78.93300000
   C     41.15000000    57.54000000    78.04300000
   C     41.32000000    59.04000000    78.23300000
   O     41.61000000    59.73000000    77.26300000
   H     40.79000000    56.18000000    79.53300000
   H     40.63000000    57.37000000    77.09300000
   H     42.11000000    57.03000000    77.98300000
   N     41.03000000    59.49000000    79.45300000
   C     40.79000000    60.90000000    79.71300000
   C     41.67000000    61.44000000    80.83300000
   O     41.73000000    60.81000000    81.88300000
   C     39.33000000    61.27000000    79.96300000
   C     38.64000000    61.83000000    78.72300000
   O     38.55000000    60.24000000    80.52300000
   H     40.84000000    58.82000000    80.18300000
   H     41.12000000    61.37000000    78.78300000
   H     39.30000000    62.14000000    80.62300000
   H     39.06000000    59.92000000    81.27300000
   H     38.80000000    61.30000000    77.78300000
   H     37.56000000    61.84000000    78.86300000
   H     39.18000000    62.76000000    78.54300000
   N     42.34000000    62.58000000    80.65300000
   C     43.17000000    63.21000000    81.66300000
   C     42.37000000    64.19000000    82.51300000
   O     41.77000000    65.17000000    82.06300000
   C     44.38000000    63.81000000    80.95300000
   C     45.33000000    62.80000000    80.31300000
   C     45.02000000    64.79000000    81.92300000
   C     46.07000000    62.00000000    81.38300000
   H     42.02000000    63.16000000    79.88300000
   H     43.60000000    62.48000000    82.35300000
   H     43.96000000    64.37000000    80.12300000
   H     46.04000000    63.37000000    79.71300000
   H     44.75000000    62.22000000    79.59300000
   H     45.22000000    64.37000000    82.91300000
   H     45.98000000    65.15000000    81.54300000
   H     44.40000000    65.66000000    82.14300000
   H     45.36000000    61.32000000    81.86300000
   H     46.79000000    61.41000000    80.82300000
   H     46.55000000    62.68000000    82.09300000
   N     42.45000000    63.96000000    83.82300000
   C     42.11000000    64.83000000    84.93300000
   C     43.24000000    65.75000000    85.36300000
   O     44.41000000    65.50000000    85.07300000
   C     41.62000000    63.94000000    86.08300000
   C     40.69000000    62.83000000    85.62300000
   O     40.99000000    61.63000000    85.76300000
   O     39.53000000    63.11000000    85.24300000
   H     43.04000000    63.19000000    84.10300000
   H     41.23000000    65.41000000    84.67300000
   H     41.18000000    64.58000000    86.84300000
   H     42.45000000    63.41000000    86.54300000
   N     43.01000000    66.93000000    85.94300000
   C     44.01000000    67.89000000    86.35300000
   C     45.16000000    67.23000000    87.09300000
   O     46.30000000    67.61000000    86.82300000
   C     43.37000000    68.97000000    87.23300000
   C     44.29000000    70.13000000    87.53300000
   C     45.13000000    70.63000000    86.53300000
   C     44.60000000    70.48000000    88.85300000
   C     46.07000000    71.64000000    86.79300000
   C     45.59000000    71.42000000    89.12300000
   C     46.35000000    72.03000000    88.11300000
   H     42.07000000    67.17000000    86.23300000
   H     44.41000000    68.36000000    85.45300000
   H     42.98000000    68.55000000    88.15300000
   H     42.45000000    69.33000000    86.77300000
   H     45.03000000    70.30000000    85.51300000
   H     44.13000000    69.93000000    89.65300000
   H     46.69000000    72.09000000    86.03300000
   H     45.71000000    71.86000000    90.11300000
   H     47.04000000    72.82000000    88.35300000
   N     45.02000000    66.28000000    88.02300000
   C     46.09000000    65.55000000    88.68300000
   C     46.98000000    64.65000000    87.83300000
   O     48.16000000    64.45000000    88.10300000
   C     45.53000000    64.82000000    89.90300000
   C     44.31000000    65.68000000    90.25300000
   C     43.85000000    65.98000000    88.82300000
   H     46.73000000    66.34000000    89.06300000
   H     45.23000000    63.80000000    89.70300000
   H     46.28000000    64.94000000    90.68300000
   H     43.50000000    65.20000000    90.81300000
   H     44.55000000    66.59000000    90.78300000
   H     43.34000000    65.12000000    88.37300000
   H     43.13000000    66.79000000    88.81300000
   N     46.42000000    64.06000000    86.77300000
   C     47.13000000    63.31000000    85.76300000
   C     47.87000000    64.31000000    84.88300000
   O     49.05000000    64.11000000    84.64300000
   C     46.08000000    62.37000000    85.18300000
   C     45.26000000    61.45000000    86.07300000
   C     44.10000000    60.75000000    85.37300000
   O     43.51000000    61.30000000    84.42300000
   O     43.64000000    59.66000000    85.79300000
   H     45.52000000    64.33000000    86.41300000
   H     47.85000000    62.68000000    86.30300000
   H     46.52000000    61.56000000    84.59300000
   H     45.30000000    62.93000000    84.67300000
   H     44.78000000    62.13000000    86.78300000
   H     45.84000000    60.73000000    86.66300000
   N     47.23000000    65.41000000    84.46300000
   C     47.89000000    66.55000000    83.86300000
   H     48.87400000    66.25100000    83.50200000
   H     47.29400000    66.91800000    83.02800000
   H     48.00100000    67.33900000    84.60700000
   H     46.25000000    65.60000000    84.57300000
  Ca     41.66000000    59.59000000    84.21000000
   O     39.17000000    60.67000000    83.70000000
   H     38.27000000    60.57000000    84.00000000
   H     39.49000000    61.45000000    84.16000000
   O     40.64000000    57.81000000    81.96000000
   H     40.13000000    57.68000000    82.76000000
   H     41.50000000    57.44000000    82.16000000

Ca 1.00



