%chk=loop1.apoCaM-CA-Ng.Init295.run98.water5.chk
%nprocshared=20
%mem=10GB
%nosave
#b3lyp/svp scf=(tight,noincore,xqc) Test 
#IOP(5/87=12) Density=Current Pop=(MK,readradii) iop(6/33=2) iop(6/42=6)

loop1.apoCaM-CA-Ng.Init295.run98.water5 

   0  1 
   C     -5.91000000   108.69000000    45.67000000
   C     -6.54000000   108.71000000    44.29000000
   O     -7.76000000   108.64000000    44.15000000
   H     -5.01700000   109.31600000    45.67000000
   H     -6.62200000   109.07300000    46.40100000
   H     -5.63600000   107.66800000    45.93000000
   N     -5.71000000   108.87000000    43.26000000
   C     -6.12000000   108.85000000    41.87000000
   C     -5.44000000   107.77000000    41.04000000
   O     -4.36000000   107.31000000    41.39000000
   C     -6.05000000   110.20000000    41.16000000
   C     -6.55000000   111.41000000    41.94000000
   O     -7.78000000   111.66000000    41.90000000
   O     -5.77000000   112.18000000    42.53000000
   H     -4.75000000   109.05000000    43.54000000
   H     -7.18000000   108.59000000    41.87000000
   H     -6.54000000   110.13000000    40.19000000
   H     -4.99000000   110.34000000    40.93000000
   N     -6.20000000   107.19000000    40.11000000
   C     -5.74000000   106.07000000    39.32000000
   C     -4.51000000   106.35000000    38.47000000
   O     -3.74000000   105.47000000    38.07000000
   C     -6.88000000   105.56000000    38.45000000
   C     -7.94000000   104.79000000    39.24000000
   C     -9.11000000   104.22000000    38.45000000
   C     -8.56000000   103.40000000    37.28000000
   N     -9.62000000   102.72000000    36.51000000
   H     -7.15000000   107.47000000    39.90000000
   H     -5.36000000   105.33000000    40.03000000
   H     -6.43000000   105.00000000    37.63000000
   H     -7.39000000   106.46000000    38.11000000
   H     -8.34000000   105.39000000    40.06000000
   H     -7.47000000   103.90000000    39.65000000
   H     -9.73000000   105.04000000    38.10000000
   H     -9.73000000   103.58000000    39.07000000
   H     -7.98000000   102.62000000    37.76000000
   H     -8.01000000   103.97000000    36.53000000
   H    -10.14000000   102.05000000    37.06000000
   H    -10.36000000   103.35000000    36.24000000
   H     -9.22000000   102.36000000    35.66000000
   N     -4.23000000   107.61000000    38.13000000
   C     -3.05000000   108.05000000    37.41000000
   C     -2.51000000   109.30000000    38.10000000
   O     -3.27000000   110.05000000    38.70000000
   C     -3.45000000   108.35000000    35.97000000
   C     -2.23000000   108.58000000    35.08000000
   O     -1.16000000   107.96000000    35.26000000
   O     -2.40000000   109.29000000    34.07000000
   H     -4.63000000   108.36000000    38.67000000
   H     -2.21000000   107.37000000    37.53000000
   H     -4.11000000   109.22000000    36.04000000
   H     -3.99000000   107.50000000    35.57000000
   N     -1.19000000   109.51000000    38.02000000
   C     -0.44000000   110.58000000    38.64000000
   C      0.95000000   110.73000000    38.05000000
   O      1.66000000   109.79000000    37.73000000
   H     -0.63000000   108.84000000    37.53000000
   H     -0.16000000   110.38000000    39.67000000
   H     -0.98000000   111.53000000    38.60000000
   N      1.29000000   112.00000000    37.81000000
   C      2.65000000   112.40000000    37.48000000
   C      3.12000000   113.64000000    38.23000000
   O      2.31000000   114.36000000    38.81000000
   C      2.72000000   112.67000000    35.98000000
   C      2.44000000   111.52000000    35.02000000
   O      3.47000000   110.92000000    34.65000000
   O      1.29000000   111.17000000    34.69000000
   H      0.68000000   112.71000000    38.18000000
   H      3.33000000   111.59000000    37.76000000
   H      3.73000000   113.06000000    35.84000000
   H      2.05000000   113.49000000    35.74000000
   N      4.41000000   113.91000000    38.43000000
   C      5.00000000   114.89000000    39.31000000
   C      4.75000000   114.58000000    40.79000000
   O      5.68000000   114.16000000    41.48000000
   H      5.05000000   113.26000000    38.00000000
   H      4.59000000   115.88000000    39.10000000
   H      6.08000000   114.94000000    39.17000000
   N      3.58000000   114.80000000    41.37000000
   C      3.23000000   114.34000000    42.71000000
   C      2.21000000   115.14000000    43.51000000
   O      1.63000000   116.07000000    42.95000000
   C      2.65000000   112.93000000    42.69000000
   C      1.39000000   112.66000000    41.88000000
   O      3.67000000   112.04000000    42.27000000
   H      2.89000000   115.29000000    40.82000000
   H      4.19000000   114.27000000    43.22000000
   H      2.44000000   112.69000000    43.73000000
   H      4.47000000   112.54000000    42.45000000
   H      0.51000000   113.15000000    42.29000000
   H      1.54000000   112.99000000    40.85000000
   H      1.10000000   111.61000000    41.85000000
   N      1.95000000   114.94000000    44.80000000
   C      0.96000000   115.67000000    45.57000000
   C      1.59000000   116.58000000    46.62000000
   O      0.86000000   117.20000000    47.38000000
   C     -0.04000000   114.71000000    46.20000000
   C      0.47000000   113.49000000    46.98000000
   C     -0.96000000   114.22000000    45.09000000
   C     -0.57000000   112.87000000    47.91000000
   H      2.30000000   114.09000000    45.23000000
   H      0.36000000   116.36000000    44.96000000
   H     -0.69000000   115.26000000    46.88000000
   H      1.24000000   113.93000000    47.61000000
   H      0.92000000   112.69000000    46.39000000
   H     -0.40000000   113.64000000    44.36000000
   H     -1.79000000   113.66000000    45.51000000
   H     -1.48000000   115.08000000    44.66000000
   H      0.00000000   112.11000000    48.45000000
   H     -0.91000000   113.68000000    48.55000000
   H     -1.37000000   112.39000000    47.36000000
   N      2.91000000   116.73000000    46.64000000
   C      3.56000000   117.52000000    47.67000000
   C      4.96000000   117.02000000    47.97000000
   O      5.76000000   116.85000000    47.06000000
   C      3.66000000   118.99000000    47.26000000
   C      4.10000000   119.21000000    45.82000000
   O      2.46000000   119.68000000    47.53000000
   H      3.45000000   116.17000000    46.00000000
   H      2.90000000   117.44000000    48.53000000
   H      4.42000000   119.57000000    47.80000000
   H      1.70000000   119.11000000    47.35000000
   H      3.77000000   120.21000000    45.52000000
   H      5.19000000   119.15000000    45.83000000
   H      3.54000000   118.61000000    45.10000000
   N      5.41000000   117.02000000    49.23000000
   C      6.71000000   116.66000000    49.75000000
   C      6.68000000   115.81000000    51.01000000
   O      7.70000000   115.22000000    51.38000000
   C      7.52000000   117.94000000    49.92000000
   C      6.96000000   118.88000000    50.98000000
   O      7.58000000   118.73000000    48.75000000
   H      4.80000000   117.33000000    49.97000000
   H      7.13000000   116.01000000    48.98000000
   H      8.54000000   117.72000000    50.21000000
   H      7.33000000   118.12000000    48.05000000
   H      6.05000000   119.46000000    50.83000000
   H      6.93000000   118.32000000    51.91000000
   H      7.69000000   119.65000000    51.23000000
   N      5.59000000   115.85000000    51.77000000
   C      5.52000000   115.21000000    53.07000000
   C      4.92000000   113.81000000    52.94000000
   O      4.25000000   113.50000000    51.96000000
   C      4.85000000   116.11000000    54.11000000
   C      5.55000000   117.40000000    54.52000000
   C      5.13000000   118.02000000    55.85000000
   C      5.76000000   119.39000000    56.05000000
   N      7.21000000   119.24000000    56.23000000
   H      4.80000000   116.31000000    51.34000000
   H      6.51000000   115.08000000    53.49000000
   H      4.71000000   115.49000000    54.99000000
   H      3.84000000   116.28000000    53.75000000
   H      5.40000000   118.19000000    53.79000000
   H      6.62000000   117.15000000    54.50000000
   H      5.46000000   117.44000000    56.71000000
   H      4.09000000   118.35000000    55.91000000
   H      5.18000000   119.91000000    56.82000000
   H      5.71000000   119.93000000    55.11000000
   H      7.38000000   118.32000000    56.60000000
   H      7.63000000   119.36000000    55.32000000
   H      7.68000000   119.82000000    56.91000000
   N      5.26000000   112.98000000    53.92000000
   C      4.75000000   111.63000000    54.09000000
   C      5.57000000   110.61000000    53.32000000
   O      6.80000000   110.69000000    53.26000000
   C      4.56000000   111.31000000    55.57000000
   C      3.74000000   112.34000000    56.34000000
   C      2.33000000   112.45000000    55.78000000
   O      1.77000000   111.42000000    55.33000000
   O      1.69000000   113.52000000    55.72000000
   H      5.97000000   113.18000000    54.61000000
   H      3.85000000   111.68000000    53.47000000
   H      5.54000000   111.30000000    56.06000000
   H      4.11000000   110.33000000    55.71000000
   H      4.28000000   113.29000000    56.30000000
   H      3.59000000   111.97000000    57.35000000
   N      4.95000000   109.61000000    52.69000000
   C      3.54000000   109.29000000    52.71000000
   H      2.98700000   110.05100000    52.15900000
   H      3.38100000   108.31700000    52.24400000
   H      3.18800000   109.26200000    53.74100000
   H      5.51000000   109.11000000    52.01000000
  Ca      0.62000000   106.14400000    35.58000000
   O     -1.88400000   104.98400000    36.32000000
   H     -2.58400000   105.08400000    35.68000000
   H     -2.30400000   105.13400000    37.17000000
   O      3.03000000   105.96400000    34.18000000
   H      3.12000000   105.98400000    33.23000000
   H      3.92000000   105.85400000    34.51000000
   O      0.09000000   106.14400000    33.02000000
   H      0.00000000   105.33400000    32.52000000
   H     -0.35000000   106.80400000    32.49000000
   O      1.88000000   108.30400000    35.12000000
   H      2.06000000   108.95400000    35.81000000
   H      1.78000000   108.81400000    34.32000000
   O      0.96000000   103.63400000    34.87000000
   H      0.59000000   103.30400000    34.05000000
   H      1.54000000   102.93400000    35.18000000

Ca 1.00



