%chk=loop2.apoCaM-CA-Ng.Init293.run34.water8.chk
%nprocshared=20
%mem=10GB
%nosave
#b3lyp/svp scf=(tight,noincore,xqc) Test 
#IOP(5/87=12) Density=Current Pop=(MK,readradii) iop(6/33=2) iop(6/42=6)

loop2.apoCaM-CA-Ng.Init293.run34.water8 

   -2  1 
   C     52.43000000    87.10000000   117.23000000
   C     52.33000000    87.09000000   118.75000000
   O     52.18000000    88.06000000   119.49000000
   H     53.47100000    87.23400000   116.93600000
   H     52.06100000    86.15400000   116.83500000
   H     51.83200000    87.91900000   116.83100000
   N     52.29000000    85.87000000   119.30000000
   C     52.17000000    85.55000000   120.71000000
   C     53.44000000    85.78000000   121.52000000
   O     53.39000000    86.37000000   122.60000000
   C     51.47000000    84.20000000   120.85000000
   C     51.01000000    83.78000000   122.23000000
   O     50.76000000    82.60000000   122.53000000
   O     50.81000000    84.72000000   123.03000000
   H     52.23000000    85.16000000   118.59000000
   H     51.52000000    86.34000000   121.09000000
   H     52.02000000    83.38000000   120.38000000
   H     50.51000000    84.34000000   120.35000000
   N     54.59000000    85.28000000   121.05000000
   C     55.90000000    85.45000000   121.64000000
   C     56.20000000    86.83000000   122.22000000
   O     56.73000000    87.05000000   123.30000000
   C     56.16000000    84.31000000   122.63000000
   H     54.63000000    84.84000000   120.14000000
   H     56.58000000    85.19000000   120.83000000
   H     56.21000000    83.31000000   122.20000000
   H     57.09000000    84.55000000   123.14000000
   H     55.43000000    84.30000000   123.44000000
   N     55.93000000    87.84000000   121.39000000
   C     56.18000000    89.25000000   121.63000000
   C     55.59000000    89.83000000   122.91000000
   O     56.02000000    90.90000000   123.32000000
   C     57.68000000    89.51000000   121.45000000
   C     58.24000000    89.22000000   120.06000000
   O     57.64000000    89.39000000   118.98000000
   O     59.41000000    88.80000000   119.99000000
   H     55.51000000    87.46000000   120.55000000
   H     55.73000000    89.82000000   120.82000000
   H     58.24000000    88.84000000   122.10000000
   H     57.84000000    90.56000000   121.70000000
   N     54.49000000    89.37000000   123.51000000
   C     53.97000000    90.01000000   124.70000000
   C     53.44000000    91.40000000   124.39000000
   O     52.87000000    91.65000000   123.33000000
   H     54.10000000    88.51000000   123.15000000
   H     54.76000000    90.06000000   125.46000000
   H     53.20000000    89.39000000   125.16000000
   N     53.67000000    92.33000000   125.32000000
   C     53.28000000    93.72000000   125.24000000
   C     51.79000000    93.82000000   124.94000000
   O     51.46000000    94.79000000   124.26000000
   C     54.29000000    94.57000000   124.46000000
   C     55.68000000    94.36000000   125.02000000
   N     56.47000000    93.34000000   124.67000000
   O     56.15000000    95.17000000   125.82000000
   H     54.03000000    92.02000000   126.21000000
   H     53.35000000    93.92000000   126.31000000
   H     54.01000000    95.61000000   124.59000000
   H     54.30000000    94.21000000   123.43000000
   H     56.14000000    92.71000000   123.95000000
   H     57.43000000    93.21000000   124.95000000
   N     50.90000000    92.87000000   125.22000000
   C     49.49000000    92.90000000   124.92000000
   C     49.07000000    92.43000000   123.53000000
   O     47.85000000    92.43000000   123.36000000
   H     51.28000000    92.01000000   125.61000000
   H     48.95000000    93.85000000   124.95000000
   H     49.02000000    92.21000000   125.62000000
   N     49.98000000    91.94000000   122.68000000
   C     49.61000000    91.35000000   121.41000000
   C     49.82000000    92.33000000   120.26000000
   O     50.38000000    93.42000000   120.41000000
   C     50.41000000    90.06000000   121.29000000
   C     50.73000000    89.19000000   122.50000000
   O     49.82000000    89.20000000   120.34000000
   H     50.97000000    91.89000000   122.85000000
   H     48.52000000    91.25000000   121.40000000
   H     51.38000000    90.34000000   120.88000000
   H     50.61000000    88.75000000   120.02000000
   H     49.82000000    88.75000000   122.90000000
   H     51.46000000    88.41000000   122.29000000
   H     51.00000000    89.79000000   123.37000000
   N     49.21000000    91.94000000   119.14000000
   C     49.34000000    92.51000000   117.82000000
   C     50.71000000    92.20000000   117.23000000
   O     51.58000000    91.54000000   117.79000000
   C     48.26000000    91.88000000   116.95000000
   C     48.26000000    90.36000000   116.77000000
   C     46.85000000    92.42000000   117.21000000
   C     47.48000000    89.80000000   115.58000000
   H     48.61000000    91.13000000   119.20000000
   H     49.26000000    93.60000000   117.80000000
   H     48.40000000    92.25000000   115.94000000
   H     47.73000000    90.01000000   117.65000000
   H     49.27000000    89.99000000   116.60000000
   H     46.51000000    92.06000000   118.18000000
   H     46.88000000    93.51000000   117.20000000
   H     46.10000000    92.10000000   116.49000000
   H     47.60000000    88.72000000   115.57000000
   H     46.41000000    90.01000000   115.67000000
   H     47.87000000    90.20000000   114.65000000
   N     51.07000000    92.81000000   116.10000000
   C     52.40000000    93.03000000   115.57000000
   C     52.97000000    94.33000000   116.13000000
   O     53.77000000    95.01000000   115.50000000
   C     52.46000000    92.88000000   114.05000000
   C     53.88000000    92.52000000   113.63000000
   O     54.18000000    92.66000000   112.43000000
   O     54.74000000    92.11000000   114.44000000
   H     50.39000000    93.33000000   115.56000000
   H     53.05000000    92.32000000   116.07000000
   H     52.03000000    93.75000000   113.56000000
   H     51.84000000    92.04000000   113.75000000
   N     52.69000000    94.66000000   117.39000000
   C     53.46000000    95.60000000   118.18000000
   C     53.14000000    97.06000000   117.90000000
   O     54.07000000    97.81000000   117.60000000
   C     53.26000000    95.22000000   119.64000000
   C     53.91000000    96.17000000   120.62000000
   C     53.13000000    97.05000000   121.37000000
   C     55.28000000    96.17000000   120.91000000
   C     53.71000000    97.86000000   122.36000000
   C     55.92000000    97.05000000   121.80000000
   C     55.10000000    97.94000000   122.50000000
   H     52.10000000    93.99000000   117.86000000
   H     54.52000000    95.45000000   117.98000000
   H     53.76000000    94.27000000   119.83000000
   H     52.26000000    95.01000000   120.01000000
   H     52.07000000    97.12000000   121.21000000
   H     55.82000000    95.41000000   120.36000000
   H     53.01000000    98.40000000   122.98000000
   H     56.99000000    97.10000000   121.95000000
   H     55.52000000    98.58000000   123.26000000
   N     51.90000000    97.57000000   117.90000000
   C     50.65000000    96.85000000   118.05000000
   C     49.89000000    96.64000000   116.75000000
   O     48.73000000    96.23000000   116.81000000
   C     49.90000000    97.71000000   119.07000000
   C     50.24000000    99.13000000   118.62000000
   C     51.69000000    98.98000000   118.17000000
   H     50.89000000    95.88000000   118.47000000
   H     48.84000000    97.50000000   118.98000000
   H     50.26000000    97.36000000   120.03000000
   H     49.61000000    99.38000000   117.77000000
   H     50.20000000    99.77000000   119.50000000
   H     51.91000000    99.51000000   117.25000000
   H     52.28000000    99.41000000   118.99000000
   N     50.53000000    96.80000000   115.59000000
   C     49.84000000    96.94000000   114.33000000
   C     48.97000000    95.75000000   113.96000000
   O     49.21000000    94.56000000   114.16000000
   C     50.87000000    97.25000000   113.25000000
   C     50.25000000    97.83000000   111.97000000
   C     49.22000000    98.89000000   112.31000000
   O     48.01000000    98.57000000   112.36000000
   O     49.74000000   100.02000000   112.44000000
   H     51.54000000    96.86000000   115.62000000
   H     49.26000000    97.85000000   114.52000000
   H     51.38000000    96.31000000   113.06000000
   H     51.52000000    98.06000000   113.57000000
   H     49.85000000    97.05000000   111.32000000
   H     51.04000000    98.26000000   111.36000000
   N     47.81000000    96.04000000   113.36000000
   C     46.98000000    95.02000000   112.75000000
   H     46.06500000    95.47500000   112.37100000
   H     47.52100000    94.55500000   111.92600000
   H     46.72800000    94.26300000   113.49300000
   H     47.63000000    97.00000000   113.15000000
  Ca     57.11000000    91.76000000   115.20100000
   O     59.41000000    92.93000000   114.13100000
   H     59.63000000    92.67000000   113.23100000
   H     59.64000000    93.86000000   114.18100000
   O     55.94000000    89.34000000   114.48100000
   H     56.50000000    89.03000000   113.77100000
   H     55.48000000    88.56000000   114.78100000
   O     57.43000000    93.58000000   117.01100000
   H     57.93000000    94.40000000   117.08100000
   H     57.31000000    93.29000000   117.91100000
   O     57.10000000    91.62000000   112.23100000
   H     56.17000000    91.76000000   112.12100000
   H     57.43000000    91.45000000   111.35100000
   O     55.91000000    90.79000000   117.52100000
   H     55.08000000    90.62000000   117.96100000
   H     56.56000000    90.32000000   118.04100000
   O     59.12000000    91.31000000   117.30100000
   H     59.20000000    90.48000000   117.78100000
   H     59.63000000    91.93000000   117.81100000
   O     56.72000000    94.15000000   114.01100000
   H     57.43000000    94.40000000   113.42100000
   H     55.95000000    94.59000000   113.66100000
   O     58.83000000    90.00000000   114.49100000
   H     58.81000000    89.61000000   113.61100000
   H     59.50000000    89.50000000   114.96100000

Ca 1.00



