%chk=loop4.holoCaM-CaMKII.run71.water2.chk
%nprocshared=20
%mem=10GB
%nosave
#b3lyp/svp scf=(tight,noincore,xqc) Test 
#IOP(5/87=12) Density=Current Pop=(MK,readradii) iop(6/33=2) iop(6/42=6)

loop4.holoCaM-CaMKII.run71.water2 

   -3  1 
   C     38.95000000    35.81000000     5.41000000
   C     39.15000000    34.63000000     6.35000000
   O     38.60000000    34.57000000     7.45000000
   H     38.16900000    36.46000000     5.80400000
   H     39.88100000    36.37100000     5.32700000
   H     38.65600000    35.44500000     4.42600000
   N     39.87000000    33.59000000     5.92000000
   C     40.05000000    32.37000000     6.68000000
   C     41.05000000    32.61000000     7.81000000
   O     42.18000000    33.02000000     7.57000000
   C     40.46000000    31.22000000     5.77000000
   C     40.66000000    29.87000000     6.45000000
   O     41.43000000    29.11000000     5.83000000
   O     40.14000000    29.69000000     7.58000000
   H     40.30000000    33.50000000     5.01000000
   H     39.08000000    32.12000000     7.10000000
   H     41.45000000    31.52000000     5.40000000
   H     39.75000000    31.06000000     4.96000000
   N     40.74000000    32.23000000     9.05000000
   C     41.56000000    32.40000000    10.23000000
   C     41.93000000    31.10000000    10.93000000
   O     42.71000000    31.16000000    11.87000000
   C     41.00000000    33.33000000    11.31000000
   C     39.61000000    32.91000000    11.76000000
   C     41.01000000    34.79000000    10.84000000
   C     39.26000000    33.52000000    13.11000000
   H     39.86000000    31.75000000     9.17000000
   H     42.52000000    32.72000000     9.84000000
   H     41.69000000    33.29000000    12.15000000
   H     39.48000000    31.83000000    11.79000000
   H     38.87000000    33.21000000    11.02000000
   H     41.04000000    35.53000000    11.64000000
   H     41.90000000    34.96000000    10.23000000
   H     40.14000000    35.06000000    10.24000000
   H     39.82000000    33.02000000    13.90000000
   H     39.45000000    34.60000000    13.14000000
   H     38.22000000    33.39000000    13.40000000
   N     41.62000000    29.91000000    10.40000000
   C     42.07000000    28.64000000    10.94000000
   C     42.47000000    27.56000000     9.95000000
   O     42.73000000    26.40000000    10.26000000
   C     40.93000000    28.14000000    11.83000000
   C     39.52000000    28.35000000    11.28000000
   O     38.61000000    28.60000000    12.10000000
   O     39.29000000    28.04000000    10.09000000
   H     41.16000000    29.92000000     9.50000000
   H     42.96000000    28.84000000    11.53000000
   H     40.90000000    28.71000000    12.75000000
   H     41.11000000    27.09000000    12.08000000
   N     42.57000000    27.91000000     8.66000000
   C     43.31000000    27.24000000     7.61000000
   C     42.65000000    26.00000000     7.04000000
   O     43.21000000    24.91000000     7.15000000
   H     42.08000000    28.78000000     8.47000000
   H     44.24000000    26.87000000     8.03000000
   H     43.65000000    27.90000000     6.81000000
   N     41.46000000    26.23000000     6.47000000
   C     40.69000000    25.25000000     5.73000000
   C     40.45000000    25.68000000     4.29000000
   O     40.04000000    24.87000000     3.46000000
   C     39.44000000    24.89000000     6.54000000
   C     38.62000000    26.12000000     6.91000000
   O     38.72000000    27.22000000     6.31000000
   O     37.74000000    26.01000000     7.78000000
   H     41.12000000    27.17000000     6.36000000
   H     41.23000000    24.31000000     5.76000000
   H     39.71000000    24.44000000     7.50000000
   H     38.73000000    24.29000000     5.96000000
   N     40.52000000    26.97000000     3.96000000
   C     40.03000000    27.54000000     2.72000000
   C     38.52000000    27.75000000     2.67000000
   O     38.03000000    27.66000000     1.54000000
   H     41.02000000    27.55000000     4.62000000
   H     40.40000000    27.05000000     1.82000000
   H     40.46000000    28.55000000     2.71000000
   N     37.80000000    27.88000000     3.78000000
   C     36.47000000    28.43000000     3.70000000
   C     36.13000000    29.58000000     4.64000000
   O     36.89000000    29.74000000     5.60000000
   C     35.47000000    27.30000000     3.88000000
   C     35.47000000    26.24000000     2.77000000
   C     34.23000000    25.37000000     2.69000000
   N     34.12000000    24.54000000     3.72000000
   O     33.42000000    25.37000000     1.76000000
   H     38.25000000    27.83000000     4.69000000
   H     36.21000000    28.82000000     2.71000000
   H     34.48000000    27.75000000     3.97000000
   H     35.72000000    26.81000000     4.82000000
   H     36.37000000    25.66000000     2.99000000
   H     35.66000000    26.75000000     1.83000000
   H     34.91000000    24.50000000     4.36000000
   H     33.23000000    24.08000000     3.84000000
   N     35.02000000    30.30000000     4.46000000
   C     34.46000000    31.18000000     5.46000000
   C     33.29000000    30.48000000     6.13000000
   O     32.49000000    29.89000000     5.40000000
   C     34.18000000    32.55000000     4.84000000
   C     33.44000000    33.42000000     5.85000000
   C     35.51000000    33.21000000     4.52000000
   H     34.43000000    30.07000000     3.67000000
   H     35.21000000    31.31000000     6.24000000
   H     33.67000000    32.35000000     3.89000000
   H     33.93000000    33.24000000     6.81000000
   H     33.41000000    34.47000000     5.59000000
   H     32.44000000    33.00000000     5.98000000
   H     35.27000000    34.18000000     4.07000000
   H     36.14000000    33.33000000     5.40000000
   H     36.04000000    32.66000000     3.75000000
   N     33.12000000    30.60000000     7.45000000
   C     32.01000000    30.15000000     8.27000000
   C     31.26000000    31.41000000     8.69000000
   O     31.84000000    32.49000000     8.60000000
   C     32.48000000    29.25000000     9.41000000
   C     32.88000000    30.01000000    10.66000000
   N     34.17000000    30.22000000    10.95000000
   O     32.02000000    30.28000000    11.50000000
   H     33.74000000    31.28000000     7.87000000
   H     31.31000000    29.60000000     7.65000000
   H     33.39000000    28.71000000     9.17000000
   H     31.68000000    28.56000000     9.68000000
   H     34.93000000    29.97000000    10.34000000
   H     34.37000000    30.76000000    11.78000000
   N     30.04000000    31.32000000     9.22000000
   C     29.27000000    32.45000000     9.70000000
   C     29.95000000    33.47000000    10.61000000
   O     29.67000000    34.65000000    10.42000000
   C     28.01000000    31.91000000    10.39000000
   C     26.96000000    32.98000000    10.53000000
   C     26.65000000    33.89000000     9.51000000
   C     26.29000000    33.18000000    11.74000000
   C     25.79000000    34.98000000     9.70000000
   C     25.42000000    34.24000000    12.00000000
   C     25.22000000    35.18000000    10.97000000
   O     24.25000000    36.13000000    11.09000000
   H     29.63000000    30.41000000     9.31000000
   H     28.96000000    32.99000000     8.81000000
   H     28.20000000    31.40000000    11.34000000
   H     27.63000000    31.13000000     9.73000000
   H     27.15000000    33.83000000     8.55000000
   H     26.55000000    32.56000000    12.60000000
   H     25.57000000    35.73000000     8.96000000
   H     24.87000000    34.33000000    12.92000000
   H     23.85000000    36.01000000    11.96000000
   N     30.81000000    32.95000000    11.48000000
   C     31.55000000    33.80000000    12.40000000
   C     32.74000000    34.53000000    11.80000000
   O     33.09000000    35.63000000    12.22000000
   C     31.99000000    33.26000000    13.75000000
   C     30.79000000    32.61000000    14.42000000
   C     31.09000000    32.32000000    15.89000000
   O     31.11000000    33.29000000    16.68000000
   O     31.51000000    31.20000000    16.24000000
   H     30.83000000    31.94000000    11.58000000
   H     30.85000000    34.60000000    12.65000000
   H     32.26000000    34.11000000    14.37000000
   H     32.78000000    32.50000000    13.74000000
   H     30.63000000    31.71000000    13.83000000
   H     29.93000000    33.25000000    14.23000000
   N     33.38000000    33.87000000    10.83000000
   C     34.43000000    34.47000000    10.04000000
   C     33.88000000    35.60000000     9.17000000
   O     34.66000000    36.50000000     8.87000000
   C     35.11000000    33.49000000     9.08000000
   C     36.33000000    32.93000000     9.82000000
   C     36.73000000    31.57000000     9.28000000
   O     37.95000000    31.37000000     9.06000000
   O     35.97000000    30.65000000     8.92000000
   H     32.99000000    32.99000000    10.54000000
   H     35.15000000    34.94000000    10.71000000
   H     35.51000000    33.93000000     8.16000000
   H     34.41000000    32.72000000     8.78000000
   H     36.08000000    32.79000000    10.87000000
   H     37.19000000    33.60000000     9.74000000
   N     32.68000000    35.45000000     8.61000000
   C     31.92000000    36.37000000     7.80000000
   H     31.00800000    36.64900000     8.32700000
   H     32.51500000    37.26200000     7.60700000
   H     31.66100000    35.89400000     6.85400000
   H     32.20000000    34.60000000     8.87000000
  Ca     37.74000000    28.88000000     8.24000000
   O     36.64000000    27.49000000    10.34000000
   H     36.15000000    26.86000000    10.88000000
   H     37.47000000    27.61000000    10.81000000
   O     35.51000000    27.67000000     7.59000000
   H     34.72000000    27.70000000     7.04000000
   H     35.68000000    26.73000000     7.70000000

Ca 1.00



