%chk=loop2.holoCaM.run29.water0.chk
%nprocshared=20
%mem=10GB
%nosave
#b3lyp/svp scf=(tight,noincore,xqc) Test 
#IOP(5/87=12) Density=Current Pop=(MK,readradii) iop(6/33=2) iop(6/42=6)

loop2.holoCaM.run29.water0 

   -2  1 
   C     52.16000000    54.88000000   109.13000000
   C     52.32000000    55.24000000   110.60000000
   O     53.48000000    55.30000000   111.00000000
   H     51.53000000    55.62300000   108.64100000
   H     53.13900000    54.86300000   108.65100000
   H     51.69500000    53.89800000   109.04400000
   N     51.23000000    55.22000000   111.38000000
   C     51.31000000    55.19000000   112.82000000
   C     51.91000000    53.90000000   113.35000000
   O     51.40000000    52.81000000   113.10000000
   C     50.02000000    55.77000000   113.40000000
   C     50.15000000    55.97000000   114.91000000
   O     50.92000000    55.27000000   115.61000000
   O     49.67000000    56.96000000   115.50000000
   H     50.33000000    55.12000000   110.93000000
   H     52.12000000    55.83000000   113.19000000
   H     49.14000000    55.16000000   113.24000000
   H     49.97000000    56.79000000   113.03000000
   N     53.07000000    54.05000000   113.99000000
   C     53.86000000    52.93000000   114.46000000
   C     53.40000000    52.41000000   115.82000000
   O     53.74000000    51.28000000   116.15000000
   C     55.30000000    53.43000000   114.57000000
   H     53.20000000    54.97000000   114.40000000
   H     53.91000000    52.09000000   113.78000000
   H     55.43000000    54.17000000   115.36000000
   H     55.91000000    52.53000000   114.72000000
   H     55.54000000    53.91000000   113.63000000
   N     52.53000000    53.12000000   116.54000000
   C     52.31000000    52.95000000   117.97000000
   C     50.85000000    52.94000000   118.40000000
   O     50.43000000    52.60000000   119.51000000
   C     53.15000000    53.95000000   118.76000000
   C     52.69000000    55.38000000   118.49000000
   O     51.54000000    55.79000000   118.25000000
   O     53.53000000    56.29000000   118.37000000
   H     52.24000000    53.97000000   116.09000000
   H     52.77000000    51.99000000   118.19000000
   H     54.19000000    53.87000000   118.45000000
   H     53.16000000    53.64000000   119.80000000
   N     49.93000000    53.18000000   117.47000000
   C     48.50000000    53.00000000   117.63000000
   C     47.92000000    54.19000000   118.37000000
   O     46.71000000    54.06000000   118.57000000
   H     50.19000000    53.57000000   116.57000000
   H     48.26000000    52.11000000   118.21000000
   H     47.94000000    52.98000000   116.70000000
   N     48.66000000    55.26000000   118.66000000
   C     48.03000000    56.28000000   119.48000000
   C     47.03000000    57.14000000   118.71000000
   O     46.10000000    57.70000000   119.28000000
   C     49.06000000    57.03000000   120.32000000
   C     49.83000000    58.16000000   119.65000000
   N     50.68000000    58.88000000   120.37000000
   O     49.96000000    58.32000000   118.44000000
   H     49.65000000    55.27000000   118.50000000
   H     47.34000000    55.80000000   120.18000000
   H     49.79000000    56.35000000   120.75000000
   H     48.41000000    57.48000000   121.07000000
   H     50.75000000    58.78000000   121.37000000
   H     51.15000000    59.60000000   119.83000000
   N     47.16000000    57.16000000   117.38000000
   C     46.27000000    57.79000000   116.42000000
   C     46.72000000    59.14000000   115.89000000
   O     45.97000000    59.79000000   115.16000000
   H     48.06000000    56.85000000   117.05000000
   H     45.33000000    58.08000000   116.90000000
   H     45.97000000    57.13000000   115.61000000
   N     47.96000000    59.57000000   116.15000000
   C     48.45000000    60.84000000   115.67000000
   C     49.89000000    60.76000000   115.18000000
   O     50.74000000    60.10000000   115.76000000
   C     48.42000000    61.93000000   116.75000000
   C     47.00000000    62.32000000   117.15000000
   O     49.03000000    61.53000000   117.96000000
   H     48.62000000    59.04000000   116.70000000
   H     47.87000000    61.29000000   114.87000000
   H     48.93000000    62.80000000   116.34000000
   H     49.96000000    61.39000000   117.79000000
   H     47.10000000    63.16000000   117.84000000
   H     46.48000000    62.46000000   116.20000000
   H     46.36000000    61.61000000   117.69000000
   N     50.20000000    61.38000000   114.04000000
   C     51.44000000    61.15000000   113.33000000
   C     52.58000000    61.98000000   113.91000000
   O     52.63000000    63.19000000   113.70000000
   C     51.18000000    61.48000000   111.86000000
   C     49.98000000    60.76000000   111.27000000
   C     52.46000000    61.22000000   111.06000000
   C     49.91000000    60.87000000   109.75000000
   H     49.55000000    61.95000000   113.52000000
   H     51.73000000    60.10000000   113.44000000
   H     50.91000000    62.53000000   111.86000000
   H     49.07000000    61.08000000   111.78000000
   H     50.13000000    59.71000000   111.49000000
   H     52.28000000    61.53000000   110.03000000
   H     53.36000000    61.67000000   111.48000000
   H     52.69000000    60.16000000   110.97000000
   H     48.94000000    60.62000000   109.30000000
   H     50.01000000    61.86000000   109.31000000
   H     50.70000000    60.29000000   109.29000000
   N     53.53000000    61.27000000   114.51000000
   C     54.74000000    61.86000000   115.02000000
   C     55.74000000    62.13000000   113.90000000
   O     55.59000000    61.62000000   112.79000000
   C     55.43000000    61.02000000   116.10000000
   C     54.57000000    60.51000000   117.24000000
   O     54.01000000    59.40000000   117.08000000
   O     54.55000000    61.19000000   118.29000000
   H     53.47000000    60.26000000   114.56000000
   H     54.64000000    62.85000000   115.46000000
   H     56.23000000    61.59000000   116.59000000
   H     55.98000000    60.19000000   115.66000000
   N     56.72000000    63.00000000   114.11000000
   C     57.58000000    63.32000000   112.98000000
   C     58.36000000    62.17000000   112.36000000
   O     58.27000000    62.08000000   111.14000000
   C     58.42000000    64.56000000   113.27000000
   C     59.38000000    64.99000000   112.18000000
   C     58.89000000    65.40000000   110.93000000
   C     60.76000000    65.02000000   112.41000000
   C     59.75000000    65.86000000   109.92000000
   C     61.62000000    65.43000000   111.39000000
   C     61.13000000    65.80000000   110.14000000
   H     56.71000000    63.70000000   114.84000000
   H     56.96000000    63.61000000   112.14000000
   H     59.07000000    64.32000000   114.11000000
   H     57.83000000    65.41000000   113.59000000
   H     57.84000000    65.28000000   110.74000000
   H     61.18000000    64.75000000   113.37000000
   H     59.30000000    66.18000000   108.99000000
   H     62.69000000    65.39000000   111.52000000
   H     61.77000000    66.10000000   109.33000000
   N     59.03000000    61.20000000   112.98000000
   C     59.35000000    59.90000000   112.42000000
   C     58.32000000    59.26000000   111.50000000
   O     58.64000000    58.77000000   110.42000000
   C     59.61000000    58.94000000   113.58000000
   C     60.12000000    59.93000000   114.62000000
   C     59.33000000    61.21000000   114.40000000
   H     60.31000000    59.99000000   111.93000000
   H     58.64000000    58.55000000   113.89000000
   H     60.27000000    58.11000000   113.33000000
   H     59.98000000    59.51000000   115.62000000
   H     61.20000000    60.08000000   114.53000000
   H     58.39000000    61.24000000   114.96000000
   H     59.90000000    62.13000000   114.58000000
   N     57.07000000    59.26000000   111.98000000
   C     56.05000000    58.52000000   111.26000000
   C     55.67000000    59.18000000   109.94000000
   O     55.18000000    58.54000000   109.01000000
   C     54.81000000    58.32000000   112.12000000
   C     55.10000000    57.51000000   113.38000000
   C     53.89000000    57.43000000   114.30000000
   O     53.00000000    58.32000000   114.37000000
   O     53.82000000    56.56000000   115.19000000
   H     56.81000000    59.75000000   112.82000000
   H     56.51000000    57.59000000   110.94000000
   H     54.11000000    57.81000000   111.46000000
   H     54.31000000    59.26000000   112.34000000
   H     55.93000000    57.98000000   113.91000000
   H     55.46000000    56.52000000   113.08000000
   N     56.00000000    60.46000000   109.81000000
   C     55.70000000    61.23000000   108.62000000
   H     54.87700000    61.91400000   108.82800000
   H     56.58000000    61.80100000   108.32400000
   H     55.41500000    60.55600000   107.81200000
   H     56.55000000    60.94000000   110.51000000
  Ca     51.90000000    57.74000000   116.54400000

Ca 1.00



