%chk=loop2.holoCaM.run55.water2.chk
%nprocshared=20
%mem=10GB
%nosave
#b3lyp/svp scf=(tight,noincore,xqc) Test 
#IOP(5/87=12) Density=Current Pop=(MK,readradii) iop(6/33=2) iop(6/42=6)

loop2.holoCaM.run55.water2 

   -2  1 
   C     50.25000000    56.71000000    -7.04700000
   C     48.76000000    56.85000000    -6.76700000
   O     48.29000000    57.49000000    -5.83700000
   H     50.80500000    56.80900000    -6.11400000
   H     50.44800000    55.73100000    -7.48400000
   H     50.56500000    57.48900000    -7.74100000
   N     47.88000000    56.22000000    -7.54700000
   C     46.44000000    56.27000000    -7.40700000
   C     46.06000000    55.18000000    -6.40700000
   O     45.97000000    53.99000000    -6.67700000
   C     45.72000000    56.07000000    -8.74700000
   C     44.21000000    56.18000000    -8.63700000
   O     43.45000000    55.56000000    -9.40700000
   O     43.76000000    57.02000000    -7.83700000
   H     48.24000000    55.54000000    -8.20700000
   H     46.14000000    57.24000000    -7.01700000
   H     46.12000000    55.19000000    -9.23700000
   H     46.07000000    56.85000000    -9.41700000
   N     45.89000000    55.66000000    -5.17700000
   C     45.41000000    54.75000000    -4.14700000
   C     43.93000000    54.43000000    -4.26700000
   O     43.56000000    53.27000000    -4.09700000
   C     45.78000000    55.38000000    -2.80700000
   H     46.21000000    56.58000000    -4.91700000
   H     45.84000000    53.75000000    -4.12700000
   H     45.11000000    54.92000000    -2.07700000
   H     46.75000000    55.04000000    -2.44700000
   H     45.55000000    56.44000000    -2.67700000
   N     43.10000000    55.35000000    -4.76700000
   C     41.69000000    55.01000000    -4.67700000
   C     41.12000000    54.12000000    -5.76700000
   O     40.07000000    53.53000000    -5.52700000
   C     40.89000000    56.29000000    -4.45700000
   C     41.13000000    57.30000000    -5.56700000
   O     40.34000000    57.30000000    -6.53700000
   O     42.09000000    58.09000000    -5.59700000
   H     43.37000000    56.32000000    -4.85700000
   H     41.54000000    54.44000000    -3.75700000
   H     41.21000000    56.70000000    -3.49700000
   H     39.84000000    56.03000000    -4.34700000
   N     41.79000000    53.96000000    -6.90700000
   C     41.45000000    53.00000000    -7.93700000
   C     40.81000000    53.50000000    -9.22700000
   O     40.64000000    52.70000000   -10.15700000
   H     42.68000000    54.42000000    -7.07700000
   H     40.78000000    52.26000000    -7.50700000
   H     42.28000000    52.42000000    -8.34700000
   N     40.30000000    54.73000000    -9.31700000
   C     39.36000000    55.20000000   -10.30700000
   C     40.03000000    55.86000000   -11.50700000
   O     39.44000000    56.40000000   -12.44700000
   C     38.47000000    56.24000000    -9.62700000
   C     37.61000000    55.66000000    -8.51700000
   N     38.00000000    55.85000000    -7.24700000
   O     36.70000000    54.87000000    -8.76700000
   H     40.37000000    55.24000000    -8.44700000
   H     38.63000000    54.47000000   -10.64700000
   H     37.76000000    56.60000000   -10.37700000
   H     39.06000000    57.13000000    -9.39700000
   H     38.83000000    56.37000000    -7.03700000
   H     37.44000000    55.54000000    -6.46700000
   N     41.36000000    55.82000000   -11.54700000
   C     42.14000000    55.85000000   -12.76700000
   C     42.61000000    57.24000000   -13.16700000
   O     42.81000000    57.57000000   -14.33700000
   H     41.83000000    55.44000000   -10.73700000
   H     41.56000000    55.60000000   -13.65700000
   H     42.94000000    55.11000000   -12.70700000
   N     42.84000000    58.11000000   -12.17700000
   C     43.02000000    59.54000000   -12.29700000
   C     43.83000000    60.11000000   -11.13700000
   O     43.86000000    59.56000000   -10.03700000
   C     41.69000000    60.29000000   -12.32700000
   C     40.87000000    60.08000000   -13.59700000
   O     40.94000000    60.00000000   -11.16700000
   H     42.60000000    57.73000000   -11.26700000
   H     43.54000000    59.78000000   -13.21700000
   H     41.92000000    61.36000000   -12.28700000
   H     41.48000000    59.55000000   -10.51700000
   H     40.02000000    60.76000000   -13.61700000
   H     41.42000000    60.20000000   -14.53700000
   H     40.45000000    59.08000000   -13.64700000
   N     44.52000000    61.23000000   -11.34700000
   C     45.44000000    61.91000000   -10.45700000
   C     44.85000000    63.15000000    -9.80700000
   O     44.54000000    64.15000000   -10.45700000
   C     46.73000000    62.29000000   -11.18700000
   C     47.27000000    61.00000000   -11.79700000
   C     47.80000000    63.03000000   -10.39700000
   C     47.86000000    60.05000000   -10.75700000
   H     44.34000000    61.74000000   -12.19700000
   H     45.69000000    61.21000000    -9.65700000
   H     46.46000000    62.91000000   -12.03700000
   H     48.13000000    61.24000000   -12.41700000
   H     46.53000000    60.55000000   -12.45700000
   H     48.74000000    62.98000000   -10.94700000
   H     47.43000000    64.03000000   -10.16700000
   H     47.85000000    62.56000000    -9.41700000
   H     48.33000000    59.27000000   -11.34700000
   H     48.54000000    60.51000000   -10.04700000
   H     47.03000000    59.61000000   -10.19700000
   N     44.84000000    63.06000000    -8.47700000
   C     44.52000000    64.20000000    -7.65700000
   C     45.75000000    65.04000000    -7.31700000
   O     46.87000000    64.58000000    -7.52700000
   C     43.93000000    63.79000000    -6.30700000
   C     42.86000000    62.71000000    -6.38700000
   O     43.17000000    61.59000000    -5.91700000
   O     41.67000000    63.00000000    -6.63700000
   H     45.30000000    62.27000000    -8.03700000
   H     43.76000000    64.77000000    -8.19700000
   H     43.46000000    64.69000000    -5.91700000
   H     44.76000000    63.36000000    -5.75700000
   N     45.63000000    66.25000000    -6.75700000
   C     46.70000000    67.18000000    -6.46700000
   C     47.80000000    66.71000000    -5.51700000
   O     48.95000000    66.82000000    -5.92700000
   C     46.03000000    68.47000000    -6.02700000
   C     47.04000000    69.54000000    -5.69700000
   C     47.98000000    69.99000000    -6.62700000
   C     46.94000000    70.24000000    -4.47700000
   C     48.88000000    71.02000000    -6.31700000
   C     47.82000000    71.27000000    -4.14700000
   C     48.81000000    71.64000000    -5.05700000
   H     44.67000000    66.54000000    -6.69700000
   H     47.23000000    67.48000000    -7.36700000
   H     45.35000000    68.31000000    -5.19700000
   H     45.43000000    68.67000000    -6.91700000
   H     48.07000000    69.58000000    -7.62700000
   H     46.23000000    69.96000000    -3.71700000
   H     49.60000000    71.32000000    -7.05700000
   H     47.73000000    71.79000000    -3.20700000
   H     49.50000000    72.46000000    -4.88700000
   N     47.47000000    65.96000000    -4.46700000
   C     48.49000000    65.34000000    -3.64700000
   C     49.25000000    64.23000000    -4.35700000
   O     50.41000000    63.93000000    -4.08700000
   C     47.81000000    64.84000000    -2.37700000
   C     46.89000000    66.03000000    -2.13700000
   C     46.35000000    66.10000000    -3.55700000
   H     49.20000000    66.12000000    -3.38700000
   H     47.27000000    63.90000000    -2.49700000
   H     48.58000000    64.80000000    -1.60700000
   H     46.04000000    65.82000000    -1.47700000
   H     47.40000000    66.95000000    -1.83700000
   H     45.71000000    65.25000000    -3.76700000
   H     45.86000000    67.07000000    -3.59700000
   N     48.67000000    63.56000000    -5.35700000
   C     49.32000000    62.50000000    -6.10700000
   C     50.18000000    63.06000000    -7.23700000
   O     51.33000000    62.64000000    -7.33700000
   C     48.29000000    61.62000000    -6.80700000
   C     47.56000000    60.76000000    -5.76700000
   C     46.29000000    60.16000000    -6.35700000
   O     45.75000000    60.54000000    -7.40700000
   O     45.70000000    59.23000000    -5.75700000
   H     47.81000000    63.89000000    -5.75700000
   H     49.98000000    61.91000000    -5.46700000
   H     48.76000000    60.99000000    -7.56700000
   H     47.57000000    62.32000000    -7.21700000
   H     47.14000000    61.40000000    -4.99700000
   H     48.19000000    59.95000000    -5.41700000
   N     49.69000000    64.11000000    -7.90700000
   C     50.48000000    64.92000000    -8.79700000
   H     51.45700000    64.45700000    -8.93800000
   H     49.97500000    65.00200000    -9.76000000
   H     50.60800000    65.91400000    -8.36800000
   H     48.77000000    64.45000000    -7.64700000
  Ca     43.54000000    59.41000000    -7.29700000
   O     41.38000000    60.60000000    -8.17700000
   H     41.25000000    61.38000000    -7.64700000
   H     40.50000000    60.37000000    -8.47700000
   O     41.40000000    57.75000000    -8.80700000
   H     42.28000000    57.37000000    -8.83700000
   H     41.03000000    57.40000000    -7.99700000

Ca 1.00



