%chk=loop1.apoCaM-CA-Ng.Init31.run57.water4.chk
%nprocshared=20
%mem=10GB
%nosave
#b3lyp/svp scf=(tight,noincore,xqc) Test 
#IOP(5/87=12) Density=Current Pop=(MK,readradii) iop(6/33=2) iop(6/42=6)

loop1.apoCaM-CA-Ng.Init31.run57.water4 

   0  1 
   C     82.15000000    87.40000000     9.44000000
   C     82.98000000    88.31000000     8.54000000
   O     82.90000000    89.53000000     8.66000000
   H     81.17600000    87.22800000     8.98200000
   H     82.66400000    86.44700000     9.56800000
   H     82.01600000    87.87400000    10.41200000
   N     83.79000000    87.76000000     7.64000000
   C     84.61000000    88.56000000     6.75000000
   C     83.79000000    88.95000000     5.53000000
   O     82.76000000    88.37000000     5.21000000
   C     85.81000000    87.75000000     6.25000000
   C     86.95000000    88.52000000     5.60000000
   O     86.96000000    89.76000000     5.47000000
   O     87.91000000    87.86000000     5.13000000
   H     83.91000000    86.76000000     7.55000000
   H     84.99000000    89.45000000     7.26000000
   H     85.53000000    86.90000000     5.64000000
   H     86.25000000    87.30000000     7.14000000
   N     84.25000000    90.02000000     4.87000000
   C     83.45000000    90.73000000     3.89000000
   C     82.95000000    89.89000000     2.72000000
   O     81.85000000    90.08000000     2.21000000
   C     84.35000000    91.85000000     3.36000000
   C     83.55000000    92.76000000     2.44000000
   C     84.45000000    93.96000000     2.15000000
   C     83.80000000    95.10000000     1.38000000
   N     84.72000000    96.10000000     0.81000000
   H     85.20000000    90.33000000     5.03000000
   H     82.54000000    91.11000000     4.36000000
   H     85.19000000    91.38000000     2.86000000
   H     84.75000000    92.39000000     4.22000000
   H     82.65000000    93.12000000     2.94000000
   H     83.29000000    92.35000000     1.46000000
   H     85.36000000    93.61000000     1.66000000
   H     84.80000000    94.34000000     3.11000000
   H     82.99000000    95.57000000     1.94000000
   H     83.33000000    94.61000000     0.53000000
   H     85.31000000    95.62000000     0.14000000
   H     84.25000000    96.87000000     0.35000000
   H     85.22000000    96.58000000     1.54000000
   N     83.68000000    88.87000000     2.28000000
   C     85.08000000    88.50000000     2.32000000
   C     85.33000000    87.00000000     2.20000000
   O     84.41000000    86.30000000     1.79000000
   C     85.78000000    89.20000000     1.16000000
   C     87.22000000    89.64000000     1.39000000
   O     87.66000000    90.46000000     0.56000000
   O     87.79000000    89.14000000     2.38000000
   H     83.14000000    88.23000000     1.71000000
   H     85.54000000    88.93000000     3.21000000
   H     85.24000000    90.13000000     0.96000000
   H     85.65000000    88.58000000     0.27000000
   N     86.48000000    86.51000000     2.68000000
   C     86.77000000    85.10000000     2.78000000
   C     88.16000000    84.69000000     3.25000000
   O     88.33000000    83.83000000     4.10000000
   H     87.17000000    87.22000000     2.90000000
   H     86.60000000    84.55000000     1.85000000
   H     86.11000000    84.69000000     3.54000000
   N     89.20000000    85.30000000     2.66000000
   C     90.54000000    84.80000000     2.85000000
   C     90.80000000    83.56000000     2.00000000
   O     90.28000000    83.43000000     0.90000000
   C     91.62000000    85.87000000     2.78000000
   C     91.20000000    87.26000000     3.23000000
   O     91.04000000    87.57000000     4.43000000
   O     90.97000000    88.18000000     2.42000000
   H     88.97000000    86.07000000     2.04000000
   H     90.65000000    84.49000000     3.89000000
   H     91.98000000    85.89000000     1.75000000
   H     92.48000000    85.58000000     3.38000000
   N     91.64000000    82.62000000     2.45000000
   C     92.37000000    82.51000000     3.70000000
   C     93.78000000    83.10000000     3.75000000
   O     94.28000000    83.47000000     4.81000000
   H     91.85000000    81.83000000     1.86000000
   H     92.33000000    81.46000000     4.00000000
   H     91.83000000    83.04000000     4.48000000
   N     94.46000000    82.99000000     2.61000000
   C     95.90000000    83.13000000     2.51000000
   C     96.56000000    82.15000000     3.47000000
   O     97.21000000    82.46000000     4.47000000
   C     96.34000000    84.56000000     2.81000000
   C     95.69000000    85.53000000     1.83000000
   O     97.73000000    84.72000000     2.67000000
   H     93.98000000    82.43000000     1.91000000
   H     96.40000000    83.01000000     1.55000000
   H     96.12000000    84.88000000     3.82000000
   H     98.10000000    84.48000000     3.53000000
   H     94.62000000    85.29000000     1.76000000
   H     95.70000000    86.55000000     2.20000000
   H     96.06000000    85.50000000     0.80000000
   N     96.57000000    80.92000000     2.97000000
   C     97.11000000    79.70000000     3.55000000
   C     98.58000000    79.39000000     3.37000000
   O     98.94000000    78.47000000     2.64000000
   C     96.50000000    79.49000000     4.93000000
   C     94.99000000    79.32000000     5.04000000
   C     97.26000000    78.27000000     5.45000000
   C     94.32000000    79.15000000     6.40000000
   H     96.37000000    80.82000000     1.98000000
   H     96.59000000    78.87000000     3.06000000
   H     96.69000000    80.36000000     5.56000000
   H     94.65000000    78.43000000     4.51000000
   H     94.58000000    80.22000000     4.58000000
   H     98.28000000    78.37000000     5.83000000
   H     96.65000000    77.89000000     6.27000000
   H     97.34000000    77.49000000     4.68000000
   H     94.26000000    78.07000000     6.59000000
   H     94.74000000    79.77000000     7.19000000
   H     93.30000000    79.49000000     6.20000000
   N     99.45000000    80.22000000     3.96000000
   C    100.84000000    79.87000000     4.18000000
   C    101.20000000    80.28000000     5.61000000
   O    100.63000000    81.20000000     6.19000000
   C    101.76000000    80.45000000     3.11000000
   C    101.46000000    81.88000000     2.66000000
   O    101.79000000    79.62000000     1.97000000
   H     99.11000000    81.01000000     4.49000000
   H    100.77000000    78.79000000     4.25000000
   H    102.78000000    80.47000000     3.48000000
   H    102.11000000    78.79000000     2.32000000
   H    102.24000000    82.48000000     2.20000000
   H    100.60000000    82.00000000     2.00000000
   H    101.15000000    82.46000000     3.53000000
   N    102.19000000    79.60000000     6.18000000
   C    102.68000000    79.81000000     7.53000000
   C    103.35000000    81.17000000     7.61000000
   O    103.98000000    81.73000000     6.71000000
   C    103.54000000    78.62000000     7.96000000
   C    102.76000000    77.34000000     8.24000000
   O    104.59000000    78.44000000     7.04000000
   H    102.73000000    78.95000000     5.63000000
   H    101.85000000    79.83000000     8.24000000
   H    103.95000000    78.92000000     8.92000000
   H    104.17000000    78.01000000     6.29000000
   H    102.02000000    77.54000000     9.01000000
   H    102.16000000    77.01000000     7.39000000
   H    103.45000000    76.63000000     8.69000000
   N    103.26000000    81.68000000     8.84000000
   C    103.50000000    83.08000000     9.14000000
   C    102.90000000    84.09000000     8.17000000
   O    103.48000000    85.06000000     7.71000000
   C    105.00000000    83.33000000     9.29000000
   C    105.61000000    82.36000000    10.30000000
   C    107.05000000    82.81000000    10.51000000
   C    107.59000000    82.06000000    11.72000000
   N    109.06000000    82.15000000    11.59000000
   H    102.95000000    81.18000000     9.66000000
   H    103.00000000    83.29000000    10.08000000
   H    105.08000000    84.37000000     9.63000000
   H    105.51000000    83.23000000     8.34000000
   H    105.54000000    81.31000000    10.02000000
   H    105.00000000    82.61000000    11.18000000
   H    107.16000000    83.88000000    10.68000000
   H    107.58000000    82.54000000     9.60000000
   H    107.24000000    81.03000000    11.64000000
   H    107.30000000    82.45000000    12.69000000
   H    109.61000000    82.34000000    12.42000000
   H    109.45000000    81.38000000    11.06000000
   H    109.31000000    82.95000000    11.03000000
   N    101.63000000    83.91000000     7.79000000
   C    100.98000000    84.72000000     6.78000000
   C     99.76000000    84.23000000     6.01000000
   O     99.61000000    84.60000000     4.84000000
   C    100.63000000    86.09000000     7.37000000
   C    100.70000000    87.28000000     6.42000000
   C    100.20000000    88.51000000     7.16000000
   O    100.97000000    89.47000000     7.40000000
   O     99.01000000    88.55000000     7.54000000
   H    101.20000000    83.06000000     8.12000000
   H    101.70000000    84.95000000     6.00000000
   H    101.30000000    86.32000000     8.20000000
   H     99.64000000    86.10000000     7.82000000
   H    100.24000000    87.12000000     5.45000000
   H    101.77000000    87.39000000     6.23000000
   N     98.80000000    83.54000000     6.62000000
   C     98.72000000    82.93000000     7.94000000
   H     97.68700000    82.94800000     8.28600000
   H     99.06600000    81.89800000     7.88500000
   H     99.34600000    83.48700000     8.63700000
   H     97.99000000    83.38000000     6.03000000
  Ca     89.52000000    89.72000000     4.12000000
   O     90.08000000    89.76000000     6.78000000
   H     90.50000000    90.58000000     7.05000000
   H     89.99000000    89.26000000     7.59000000
   O     90.08000000    91.13000000     1.77000000
   H     90.70000000    91.08000000     1.05000000
   H     89.23000000    90.93000000     1.36000000
   O     88.93000000    92.33000000     4.39000000
   H     88.79000000    92.90000000     3.63000000
   H     88.96000000    92.93000000     5.13000000
   O     91.78000000    90.94000000     4.72000000
   H     92.43000000    91.43000000     4.20000000
   H     91.96000000    91.19000000     5.62000000

Ca 1.00



