%chk=loop4.apoCaM-CA-Ng.Init31.run14.water5.chk
%nprocshared=20
%mem=10GB
%nosave
#b3lyp/svp scf=(tight,noincore,xqc) Test 
#IOP(5/87=12) Density=Current Pop=(MK,readradii) iop(6/33=2) iop(6/42=6)

loop4.apoCaM-CA-Ng.Init31.run14.water5 

   -3  1 
   C     83.66000000    77.02000000    21.38000000
   C     85.02000000    77.09000000    22.05000000
   O     86.01000000    76.46000000    21.69000000
   H     82.97100000    77.69500000    21.88700000
   H     83.75400000    77.31500000    20.33500000
   H     83.27800000    76.00100000    21.43800000
   N     85.25000000    77.87000000    23.12000000
   C     84.40000000    78.58000000    24.06000000
   C     84.80000000    80.04000000    24.25000000
   O     84.25000000    80.77000000    25.07000000
   C     84.26000000    77.79000000    25.35000000
   C     84.12000000    76.28000000    25.19000000
   O     82.99000000    75.79000000    24.96000000
   O     85.12000000    75.53000000    25.24000000
   H     86.22000000    77.82000000    23.41000000
   H     83.41000000    78.62000000    23.62000000
   H     83.42000000    78.26000000    25.85000000
   H     85.14000000    78.05000000    25.94000000
   N     85.84000000    80.52000000    23.56000000
   C     86.42000000    81.84000000    23.71000000
   C     87.28000000    81.90000000    24.96000000
   O     87.39000000    82.93000000    25.62000000
   C     87.39000000    82.12000000    22.56000000
   C     87.84000000    83.57000000    22.71000000
   C     88.50000000    81.12000000    22.27000000
   C     88.26000000    84.19000000    21.38000000
   H     86.21000000    80.01000000    22.78000000
   H     85.60000000    82.57000000    23.77000000
   H     86.76000000    82.10000000    21.67000000
   H     88.66000000    83.70000000    23.42000000
   H     87.02000000    84.24000000    23.00000000
   H     88.98000000    81.27000000    21.30000000
   H     89.27000000    81.29000000    23.01000000
   H     88.05000000    80.13000000    22.24000000
   H     88.83000000    83.46000000    20.81000000
   H     87.32000000    84.41000000    20.86000000
   H     88.82000000    85.11000000    21.54000000
   N     87.90000000    80.78000000    25.33000000
   C     88.86000000    80.58000000    26.40000000
   C     88.64000000    79.36000000    27.28000000
   O     89.08000000    79.37000000    28.42000000
   C     90.31000000    80.58000000    25.92000000
   C     91.41000000    80.59000000    26.96000000
   O     91.12000000    81.22000000    28.01000000
   O     92.50000000    80.02000000    26.72000000
   H     87.87000000    80.06000000    24.63000000
   H     88.69000000    81.39000000    27.11000000
   H     90.46000000    81.50000000    25.35000000
   H     90.46000000    79.73000000    25.24000000
   N     88.06000000    78.28000000    26.74000000
   C     88.15000000    76.95000000    27.30000000
   C     89.50000000    76.27000000    27.11000000
   O     90.37000000    76.82000000    26.45000000
   H     87.65000000    78.46000000    25.83000000
   H     87.44000000    76.37000000    26.70000000
   H     87.91000000    77.10000000    28.35000000
   N     89.60000000    75.08000000    27.71000000
   C     90.79000000    74.27000000    27.55000000
   C     91.16000000    73.44000000    28.76000000
   O     90.32000000    73.32000000    29.65000000
   C     90.46000000    73.39000000    26.35000000
   C     89.15000000    72.62000000    26.40000000
   O     88.20000000    72.97000000    25.67000000
   O     89.17000000    71.59000000    27.11000000
   H     88.86000000    74.75000000    28.31000000
   H     91.66000000    74.88000000    27.30000000
   H     91.27000000    72.65000000    26.27000000
   H     90.41000000    73.97000000    25.43000000
   N     92.33000000    72.80000000    28.74000000
   C     93.48000000    72.96000000    27.88000000
   C     94.49000000    73.97000000    28.41000000
   O     94.44000000    74.34000000    29.58000000
   H     92.42000000    72.31000000    29.62000000
   H     93.18000000    73.29000000    26.88000000
   H     93.98000000    72.00000000    27.74000000
   N     95.58000000    74.43000000    27.80000000
   C     96.04000000    74.40000000    26.42000000
   C     95.03000000    74.92000000    25.41000000
   O     93.91000000    75.32000000    25.74000000
   C     96.66000000    73.04000000    26.14000000
   C     97.54000000    72.46000000    27.24000000
   C     98.86000000    73.17000000    27.51000000
   N     99.66000000    72.67000000    28.45000000
   O     99.27000000    74.07000000    26.78000000
   H     96.21000000    74.92000000    28.42000000
   H     96.92000000    75.04000000    26.39000000
   H     97.08000000    73.04000000    25.13000000
   H     95.92000000    72.25000000    25.94000000
   H     97.75000000    71.46000000    26.84000000
   H     96.95000000    72.44000000    28.15000000
   H     99.29000000    71.97000000    29.07000000
   H    100.50000000    73.22000000    28.56000000
   N     95.40000000    74.91000000    24.13000000
   C     94.49000000    75.19000000    23.03000000
   C     95.19000000    76.02000000    21.97000000
   O     96.41000000    75.90000000    21.84000000
   C     93.94000000    73.93000000    22.37000000
   C     93.12000000    73.05000000    23.31000000
   C     95.04000000    73.01000000    21.86000000
   H     96.26000000    74.43000000    23.92000000
   H     93.62000000    75.68000000    23.47000000
   H     93.32000000    74.20000000    21.52000000
   H     92.33000000    73.68000000    23.70000000
   H     92.75000000    72.24000000    22.67000000
   H     93.77000000    72.62000000    24.08000000
   H     94.64000000    72.21000000    21.24000000
   H     95.77000000    73.47000000    21.19000000
   H     95.58000000    72.56000000    22.69000000
   N     94.42000000    76.90000000    21.33000000
   C     94.80000000    77.76000000    20.22000000
   C     94.37000000    77.15000000    18.89000000
   O     95.22000000    76.59000000    18.21000000
   C     94.31000000    79.20000000    20.38000000
   C     94.98000000    80.08000000    21.42000000
   N     94.59000000    80.04000000    22.69000000
   O     95.98000000    80.78000000    21.23000000
   H     93.43000000    76.72000000    21.40000000
   H     95.88000000    77.73000000    20.17000000
   H     93.25000000    79.09000000    20.60000000
   H     94.47000000    79.66000000    19.40000000
   H     93.83000000    79.49000000    23.07000000
   H     95.07000000    80.66000000    23.33000000
   N     93.07000000    77.26000000    18.58000000
   C     92.31000000    76.73000000    17.47000000
   C     92.18000000    75.21000000    17.56000000
   O     93.01000000    74.45000000    18.05000000
   C     92.85000000    77.43000000    16.22000000
   C     92.04000000    77.33000000    14.95000000
   C     92.13000000    76.12000000    14.25000000
   C     91.34000000    78.40000000    14.38000000
   C     91.48000000    75.96000000    13.02000000
   C     90.69000000    78.24000000    13.15000000
   C     90.68000000    76.99000000    12.50000000
   O     90.06000000    76.82000000    11.30000000
   H     92.46000000    77.53000000    19.34000000
   H     91.28000000    77.04000000    17.59000000
   H     93.84000000    77.06000000    15.96000000
   H     93.00000000    78.49000000    16.41000000
   H     92.77000000    75.34000000    14.63000000
   H     91.20000000    79.32000000    14.94000000
   H     91.72000000    75.09000000    12.42000000
   H     90.00000000    79.01000000    12.84000000
   H     89.67000000    77.60000000    10.90000000
   N     91.05000000    74.86000000    16.93000000
   C     90.63000000    73.47000000    16.81000000
   C     89.12000000    73.31000000    16.91000000
   O     88.43000000    73.62000000    15.94000000
   C     91.10000000    72.93000000    15.46000000
   C     91.05000000    71.41000000    15.40000000
   C     92.22000000    70.69000000    16.06000000
   O     92.09000000    69.50000000    16.41000000
   O     93.30000000    71.28000000    16.22000000
   H     90.45000000    75.54000000    16.49000000
   H     91.12000000    72.95000000    17.62000000
   H     92.07000000    73.28000000    15.10000000
   H     90.39000000    73.32000000    14.73000000
   H     91.17000000    71.28000000    14.32000000
   H     90.09000000    70.96000000    15.67000000
   N     88.54000000    73.13000000    18.10000000
   C     87.11000000    73.24000000    18.29000000
   C     86.75000000    74.69000000    18.02000000
   O     85.76000000    74.82000000    17.30000000
   C     86.67000000    72.81000000    19.69000000
   C     86.81000000    71.30000000    19.90000000
   C     86.81000000    70.80000000    21.34000000
   O     87.85000000    70.33000000    21.84000000
   O     85.77000000    70.95000000    22.02000000
   H     89.12000000    72.75000000    18.83000000
   H     86.61000000    72.57000000    17.59000000
   H     85.64000000    73.06000000    19.94000000
   H     87.29000000    73.28000000    20.44000000
   H     87.68000000    70.92000000    19.37000000
   H     85.96000000    70.85000000    19.38000000
   N     87.54000000    75.63000000    18.54000000
   C     87.51000000    77.03000000    18.19000000
   H     87.01200000    77.59100000    18.98100000
   H     88.52900000    77.39700000    18.07100000
   H     86.96500000    77.16000000    17.25500000
   H     88.33000000    75.27000000    19.06000000
  Ca     83.19000000    73.23000000    25.08000000
   O     84.84000000    73.45000000    22.97000000
   H     85.20000000    72.62000000    22.66000000
   H     85.45000000    74.11000000    22.66000000
   O     81.95000000    71.27000000    26.65000000
   H     81.38000000    71.34000000    27.42000000
   H     82.15000000    70.34000000    26.58000000
   O     82.92000000    74.13000000    27.68000000
   H     82.93000000    75.04000000    27.99000000
   H     82.47000000    73.65000000    28.38000000
   O     85.52000000    72.55000000    26.36000000
   H     85.71000000    71.87000000    27.01000000
   H     86.35000000    72.69000000    25.91000000
   O     83.76000000    70.91000000    24.01000000
   H     83.74000000    70.09000000    24.50000000
   H     84.44000000    70.77000000    23.34000000

Ca 1.00



