%chk=loop1.apoCaM-CA-Ng.Init31.run34.water4.chk
%nprocshared=20
%mem=10GB
%nosave
#b3lyp/svp scf=(tight,noincore,xqc) Test 
#IOP(5/87=12) Density=Current Pop=(MK,readradii) iop(6/33=2) iop(6/42=6)

loop1.apoCaM-CA-Ng.Init31.run34.water4 

   0  1 
   C     93.17000000    82.35000000    84.43000000
   C     93.93000000    83.20000000    83.42000000
   O     94.90000000    83.86000000    83.78000000
   H     92.18200000    82.11300000    84.03500000
   H     93.71800000    81.42600000    84.61400000
   H     93.06400000    82.90200000    85.36400000
   N     93.41000000    83.30000000    82.19000000
   C     94.19000000    83.91000000    81.12000000
   C     93.29000000    84.53000000    80.07000000
   O     92.07000000    84.35000000    80.14000000
   C     95.15000000    82.83000000    80.65000000
   C     96.17000000    83.35000000    79.65000000
   O     96.59000000    84.52000000    79.61000000
   O     96.69000000    82.56000000    78.83000000
   H     92.54000000    82.84000000    82.01000000
   H     94.78000000    84.73000000    81.53000000
   H     94.63000000    82.03000000    80.12000000
   H     95.77000000    82.39000000    81.43000000
   N     93.81000000    85.32000000    79.12000000
   C     93.06000000    86.10000000    78.15000000
   C     92.32000000    85.15000000    77.22000000
   O     91.12000000    85.37000000    77.03000000
   C     93.99000000    87.09000000    77.46000000
   C     93.45000000    87.96000000    76.33000000
   C     94.34000000    89.16000000    75.98000000
   C     95.71000000    88.67000000    75.53000000
   N     96.62000000    89.79000000    75.23000000
   H     94.81000000    85.44000000    79.05000000
   H     92.24000000    86.55000000    78.70000000
   H     94.87000000    86.54000000    77.12000000
   H     94.30000000    87.80000000    78.22000000
   H     92.45000000    88.37000000    76.47000000
   H     93.41000000    87.25000000    75.51000000
   H     94.40000000    89.72000000    76.91000000
   H     93.80000000    89.67000000    75.18000000
   H     95.64000000    88.11000000    74.60000000
   H     96.06000000    88.08000000    76.38000000
   H     96.30000000    90.41000000    74.50000000
   H     96.82000000    90.32000000    76.06000000
   H     97.49000000    89.40000000    74.89000000
   N     92.85000000    84.12000000    76.57000000
   C     94.19000000    83.58000000    76.48000000
   C     94.12000000    82.06000000    76.44000000
   O     93.07000000    81.59000000    76.02000000
   C     94.92000000    84.04000000    75.23000000
   C     96.44000000    84.13000000    75.28000000
   O     97.07000000    84.03000000    76.35000000
   O     97.02000000    84.21000000    74.17000000
   H     92.18000000    83.67000000    75.95000000
   H     94.78000000    83.88000000    77.35000000
   H     94.66000000    85.10000000    75.10000000
   H     94.64000000    83.48000000    74.34000000
   N     95.20000000    81.30000000    76.63000000
   C     95.07000000    79.87000000    76.81000000
   C     96.33000000    79.14000000    77.28000000
   O     96.22000000    78.33000000    78.20000000
   H     96.09000000    81.76000000    76.74000000
   H     94.78000000    79.38000000    75.88000000
   H     94.22000000    79.79000000    77.48000000
   N     97.52000000    79.39000000    76.75000000
   C     98.71000000    78.71000000    77.22000000
   C     98.91000000    77.35000000    76.58000000
   O     98.68000000    77.20000000    75.38000000
   C     99.96000000    79.58000000    77.13000000
   C     99.82000000    80.98000000    77.71000000
   O     99.74000000    81.20000000    78.93000000
   O     99.53000000    81.86000000    76.86000000
   H     97.67000000    80.05000000    76.00000000
   H     98.57000000    78.64000000    78.30000000
   H    100.32000000    79.67000000    76.10000000
   H    100.74000000    79.09000000    77.71000000
   N     99.37000000    76.30000000    77.26000000
   C    100.08000000    76.33000000    78.52000000
   C    101.56000000    76.70000000    78.50000000
   O    102.05000000    77.12000000    79.54000000
   H     99.45000000    75.39000000    76.83000000
   H    100.08000000    75.33000000    78.97000000
   H     99.52000000    77.04000000    79.13000000
   N    102.23000000    76.55000000    77.35000000
   C    103.67000000    76.53000000    77.33000000
   C    104.38000000    75.61000000    78.31000000
   O    105.23000000    76.06000000    79.08000000
   C    104.25000000    77.95000000    77.27000000
   C    103.52000000    78.84000000    76.27000000
   O    105.57000000    77.86000000    76.80000000
   H    101.76000000    76.16000000    76.54000000
   H    103.99000000    76.19000000    76.35000000
   H    104.26000000    78.42000000    78.25000000
   H    106.21000000    78.04000000    77.49000000
   H    103.79000000    78.42000000    75.29000000
   H    102.46000000    78.89000000    76.49000000
   H    103.90000000    79.86000000    76.23000000
   N    103.97000000    74.34000000    78.40000000
   C    104.58000000    73.29000000    79.19000000
   C    106.06000000    73.03000000    78.90000000
   O    106.35000000    71.91000000    78.48000000
   C    104.32000000    73.51000000    80.67000000
   C    102.85000000    73.79000000    80.95000000
   C    104.81000000    72.33000000    81.52000000
   C    101.81000000    72.87000000    80.32000000
   H    103.28000000    74.04000000    77.72000000
   H    104.23000000    72.28000000    78.98000000
   H    104.98000000    74.35000000    80.92000000
   H    102.65000000    74.82000000    80.64000000
   H    102.66000000    73.77000000    82.02000000
   H    104.37000000    71.39000000    81.21000000
   H    105.90000000    72.30000000    81.54000000
   H    104.45000000    72.39000000    82.54000000
   H    100.81000000    73.02000000    80.73000000
   H    101.76000000    73.12000000    79.26000000
   H    102.14000000    71.85000000    80.47000000
   N    106.98000000    73.93000000    79.22000000
   C    108.42000000    73.73000000    79.14000000
   C    109.16000000    74.30000000    80.34000000
   O    108.59000000    75.10000000    81.09000000
   C    109.02000000    74.36000000    77.88000000
   C    108.87000000    75.87000000    77.72000000
   O    108.49000000    73.78000000    76.71000000
   H    106.56000000    74.72000000    79.69000000
   H    108.53000000    72.66000000    79.01000000
   H    110.06000000    74.03000000    77.86000000
   H    107.83000000    74.38000000    76.34000000
   H    109.38000000    76.31000000    76.86000000
   H    107.83000000    76.16000000    77.57000000
   H    109.25000000    76.34000000    78.63000000
   N    110.42000000    73.91000000    80.52000000
   C    111.20000000    74.54000000    81.57000000
   C    111.49000000    76.01000000    81.29000000
   O    111.77000000    76.31000000    80.13000000
   C    112.41000000    73.72000000    82.01000000
   C    112.03000000    72.39000000    82.65000000
   O    113.19000000    73.56000000    80.85000000
   H    110.86000000    73.16000000    80.01000000
   H    110.70000000    74.43000000    82.53000000
   H    112.97000000    74.28000000    82.76000000
   H    112.73000000    73.13000000    80.13000000
   H    111.43000000    71.74000000    82.01000000
   H    112.94000000    71.87000000    82.96000000
   H    111.44000000    72.66000000    83.53000000
   N    111.54000000    76.89000000    82.29000000
   C    111.64000000    78.32000000    82.09000000
   C    110.62000000    78.87000000    81.10000000
   O    110.97000000    79.23000000    79.98000000
   C    113.08000000    78.72000000    81.78000000
   C    113.98000000    78.34000000    82.94000000
   C    113.69000000    79.02000000    84.28000000
   C    114.69000000    78.78000000    85.41000000
   N    116.06000000    79.20000000    85.05000000
   H    111.54000000    76.50000000    83.23000000
   H    111.25000000    78.73000000    83.03000000
   H    113.09000000    79.81000000    81.67000000
   H    113.46000000    78.24000000    80.88000000
   H    115.03000000    78.50000000    82.67000000
   H    113.88000000    77.27000000    83.13000000
   H    112.76000000    78.58000000    84.63000000
   H    113.55000000    80.09000000    84.16000000
   H    114.81000000    77.70000000    85.56000000
   H    114.40000000    79.28000000    86.33000000
   H    116.52000000    79.50000000    85.90000000
   H    116.52000000    78.40000000    84.66000000
   H    116.05000000    80.03000000    84.47000000
   N    109.35000000    78.88000000    81.54000000
   C    108.31000000    79.55000000    80.79000000
   C    107.15000000    78.59000000    80.55000000
   O    106.55000000    78.70000000    79.48000000
   C    108.01000000    80.91000000    81.41000000
   C    106.61000000    81.46000000    81.17000000
   C    106.59000000    82.91000000    81.65000000
   O    106.98000000    83.86000000    80.94000000
   O    106.23000000    83.13000000    82.83000000
   H    109.23000000    78.52000000    82.48000000
   H    108.69000000    79.68000000    79.78000000
   H    108.75000000    81.66000000    81.13000000
   H    108.11000000    80.72000000    82.48000000
   H    105.91000000    80.87000000    81.76000000
   H    106.36000000    81.35000000    80.12000000
   N    106.86000000    77.52000000    81.28000000
   C    107.10000000    77.20000000    82.68000000
   H    107.85800000    77.87300000    83.08100000
   H    106.17500000    77.31800000    83.24400000
   H    107.44800000    76.17000000    82.76300000
   H    106.27000000    76.88000000    80.76000000
  Ca     98.89000000    84.04000000    78.31000000
   O     99.03000000    83.70000000    80.96000000
   H     99.64000000    82.99000000    81.16000000
   H     98.24000000    83.48000000    81.46000000
   O     98.84000000    86.62000000    78.57000000
   H     99.64000000    87.08000000    78.32000000
   H     98.44000000    87.18000000    79.25000000
   O    101.41500000    84.39000000    78.80000000
   H    102.24500000    84.55000000    78.36000000
   H    101.61500000    84.47000000    79.73000000
   O     99.94500000    84.77000000    75.87000000
   H    100.46500000    84.30000000    75.21000000
   H     99.10500000    84.92000000    75.44000000

Ca 1.00



