%chk=loop1.apoCaM-CA-Ng.Init295.run23.water5.chk
%nprocshared=20
%mem=10GB
%nosave
#b3lyp/svp scf=(tight,noincore,xqc) Test 
#IOP(5/87=12) Density=Current Pop=(MK,readradii) iop(6/33=2) iop(6/42=6)

loop1.apoCaM-CA-Ng.Init295.run23.water5 

   0  1 
   C     67.49000000    54.05000000    53.12000000
   C     66.16000000    53.36000000    52.90000000
   O     65.83000000    52.30000000    53.44000000
   H     68.22400000    53.65500000    52.41800000
   H     67.37500000    55.12200000    52.95900000
   H     67.82900000    53.86900000    54.14000000
   N     65.44000000    53.86000000    51.89000000
   C     64.20000000    53.37000000    51.33000000
   C     63.10000000    53.10000000    52.36000000
   O     62.55000000    52.01000000    52.46000000
   C     64.55000000    52.21000000    50.40000000
   C     63.42000000    51.77000000    49.48000000
   O     63.56000000    50.67000000    48.92000000
   O     62.51000000    52.55000000    49.13000000
   H     65.83000000    54.69000000    51.48000000
   H     63.89000000    54.16000000    50.65000000
   H     64.84000000    51.31000000    50.94000000
   H     65.43000000    52.49000000    49.81000000
   N     62.90000000    54.11000000    53.20000000
   C     62.05000000    54.07000000    54.38000000
   C     60.99000000    55.17000000    54.30000000
   O     60.06000000    55.08000000    55.10000000
   C     62.87000000    54.07000000    55.66000000
   C     64.03000000    55.05000000    55.81000000
   C     64.76000000    54.88000000    57.14000000
   C     65.72000000    56.06000000    57.28000000
   N     66.93000000    55.88000000    58.09000000
   H     63.50000000    54.91000000    53.08000000
   H     61.40000000    53.20000000    54.42000000
   H     63.35000000    53.09000000    55.72000000
   H     62.17000000    54.27000000    56.47000000
   H     63.71000000    56.09000000    55.83000000
   H     64.75000000    54.90000000    55.01000000
   H     65.35000000    53.97000000    57.00000000
   H     64.10000000    54.85000000    58.00000000
   H     65.17000000    56.87000000    57.76000000
   H     65.92000000    56.45000000    56.28000000
   H     67.56000000    55.22000000    57.65000000
   H     67.49000000    56.72000000    58.14000000
   H     66.70000000    55.60000000    59.04000000
   N     61.18000000    56.21000000    53.48000000
   C     60.20000000    57.28000000    53.43000000
   C     58.95000000    57.02000000    52.60000000
   O     57.88000000    57.42000000    53.03000000
   C     60.95000000    58.56000000    53.09000000
   C     60.05000000    59.78000000    52.88000000
   O     59.28000000    59.83000000    51.90000000
   O     59.98000000    60.73000000    53.68000000
   H     62.01000000    56.27000000    52.92000000
   H     59.87000000    57.49000000    54.45000000
   H     61.30000000    58.39000000    52.07000000
   H     61.83000000    58.74000000    53.71000000
   N     59.02000000    56.08000000    51.65000000
   C     57.87000000    55.39000000    51.10000000
   C     57.18000000    56.11000000    49.96000000
   O     57.23000000    55.63000000    48.83000000
   H     59.95000000    55.82000000    51.35000000
   H     57.11000000    55.27000000    51.88000000
   H     58.15000000    54.38000000    50.79000000
   N     56.54000000    57.24000000    50.28000000
   C     55.92000000    58.06000000    49.25000000
   C     56.90000000    58.87000000    48.41000000
   O     56.52000000    59.27000000    47.31000000
   C     54.91000000    59.01000000    49.89000000
   C     55.61000000    59.91000000    50.90000000
   O     55.94000000    59.50000000    52.02000000
   O     55.91000000    61.06000000    50.50000000
   H     56.45000000    57.54000000    51.24000000
   H     55.41000000    57.40000000    48.55000000
   H     54.17000000    58.37000000    50.36000000
   H     54.36000000    59.59000000    49.15000000
   N     58.12000000    59.05000000    48.91000000
   C     59.13000000    59.89000000    48.29000000
   C     60.57000000    59.69000000    48.74000000
   O     60.96000000    58.60000000    49.15000000
   H     58.47000000    58.55000000    49.72000000
   H     58.85000000    60.85000000    48.71000000
   H     59.04000000    59.87000000    47.21000000
   N     61.33000000    60.79000000    48.66000000
   C     62.63000000    60.97000000    49.26000000
   C     63.52000000    61.98000000    48.53000000
   O     63.24000000    63.17000000    48.43000000
   C     62.51000000    61.21000000    50.76000000
   C     63.94000000    61.20000000    51.30000000
   O     61.92000000    62.46000000    51.02000000
   H     61.03000000    61.58000000    48.10000000
   H     63.08000000    59.99000000    49.10000000
   H     61.87000000    60.43000000    51.16000000
   H     62.18000000    62.73000000    51.90000000
   H     63.92000000    60.81000000    52.32000000
   H     64.53000000    60.48000000    50.74000000
   H     64.37000000    62.19000000    51.46000000
   N     64.62000000    61.51000000    47.94000000
   C     65.61000000    62.19000000    47.13000000
   C     65.50000000    61.80000000    45.66000000
   O     65.75000000    62.60000000    44.76000000
   C     66.97000000    61.92000000    47.76000000
   C     67.06000000    62.52000000    49.16000000
   C     68.17000000    62.30000000    46.90000000
   C     68.02000000    61.69000000    50.02000000
   H     64.88000000    60.60000000    48.28000000
   H     65.47000000    63.27000000    47.09000000
   H     67.01000000    60.84000000    47.87000000
   H     66.07000000    62.54000000    49.62000000
   H     67.45000000    63.53000000    49.12000000
   H     69.03000000    61.77000000    47.32000000
   H     67.99000000    61.95000000    45.88000000
   H     68.18000000    63.38000000    46.77000000
   H     67.94000000    61.84000000    51.09000000
   H     67.80000000    60.62000000    49.91000000
   H     69.04000000    61.95000000    49.73000000
   N     65.23000000    60.52000000    45.40000000
   C     65.18000000    59.94000000    44.07000000
   C     65.50000000    58.46000000    44.16000000
   O     65.38000000    57.86000000    45.23000000
   C     63.81000000    60.27000000    43.49000000
   C     63.78000000    59.87000000    42.02000000
   O     62.76000000    59.62000000    44.17000000
   H     64.93000000    59.94000000    46.16000000
   H     65.92000000    60.44000000    43.44000000
   H     63.68000000    61.35000000    43.49000000
   H     62.30000000    60.32000000    44.64000000
   H     64.71000000    60.17000000    41.54000000
   H     63.58000000    58.81000000    41.83000000
   H     63.01000000    60.46000000    41.52000000
   N     66.02000000    57.89000000    43.07000000
   C     66.28000000    56.47000000    42.92000000
   C     67.68000000    56.14000000    42.42000000
   O     68.01000000    54.96000000    42.37000000
   C     65.20000000    55.70000000    42.17000000
   C     65.02000000    54.31000000    42.77000000
   O     65.48000000    55.64000000    40.79000000
   H     66.23000000    58.50000000    42.29000000
   H     66.29000000    56.07000000    43.93000000
   H     64.22000000    56.18000000    42.18000000
   H     65.23000000    56.45000000    40.34000000
   H     64.28000000    54.34000000    43.57000000
   H     64.58000000    53.67000000    42.01000000
   H     65.96000000    53.99000000    43.22000000
   N     68.48000000    57.16000000    42.07000000
   C     69.82000000    57.05000000    41.53000000
   C     70.70000000    58.12000000    42.17000000
   O     70.32000000    59.26000000    42.44000000
   C     69.80000000    57.03000000    40.01000000
   C     68.81000000    56.00000000    39.47000000
   C     69.03000000    56.00000000    37.96000000
   C     67.80000000    55.42000000    37.27000000
   N     68.06000000    55.30000000    35.82000000
   H     68.16000000    58.10000000    42.23000000
   H     70.21000000    56.12000000    41.94000000
   H     70.82000000    56.83000000    39.67000000
   H     69.52000000    58.03000000    39.70000000
   H     67.83000000    56.45000000    39.63000000
   H     69.07000000    55.09000000    40.00000000
   H     69.94000000    55.41000000    37.90000000
   H     69.27000000    56.98000000    37.55000000
   H     66.93000000    56.06000000    37.43000000
   H     67.58000000    54.46000000    37.75000000
   H     67.21000000    55.03000000    35.35000000
   H     68.35000000    56.20000000    35.45000000
   H     68.76000000    54.65000000    35.52000000
   N     71.98000000    57.79000000    42.32000000
   C     73.01000000    58.71000000    42.77000000
   C     72.95000000    59.35000000    44.15000000
   O     73.31000000    60.51000000    44.31000000
   C     74.33000000    57.96000000    42.60000000
   C     74.62000000    57.50000000    41.18000000
   C     74.42000000    58.45000000    40.00000000
   O     75.25000000    59.37000000    39.85000000
   O     73.42000000    58.32000000    39.26000000
   H     72.29000000    56.87000000    42.03000000
   H     73.07000000    59.54000000    42.07000000
   H     74.39000000    57.13000000    43.31000000
   H     75.17000000    58.58000000    42.91000000
   H     73.96000000    56.69000000    40.90000000
   H     75.67000000    57.22000000    41.22000000
   N     72.43000000    58.72000000    45.21000000
   C     71.95000000    57.37000000    45.45000000
   H     70.97700000    57.24100000    44.97600000
   H     72.65600000    56.65300000    45.03100000
   H     71.85600000    57.20300000    46.52300000
   H     72.33000000    59.35000000    45.99000000
  Ca     57.51000000    61.57000000    52.57000000
   O     55.35000000    62.05000000    54.09000000
   H     54.40000000    61.96000000    54.01000000
   H     55.48000000    62.44000000    54.96000000
   O     58.35000000    62.99000000    54.88000000
   H     59.24000000    63.24000000    55.13000000
   H     57.79000000    63.39000000    55.55000000
   O     56.65000000    64.00000000    52.06000000
   H     55.84000000    64.29000000    52.47000000
   H     56.74000000    64.55000000    51.28000000
   O     59.25000000    63.02000000    51.24000000
   H     59.10000000    63.95000000    51.07000000
   H     60.18000000    62.89000000    51.05000000
   O     57.30000000    59.54000000    54.35000000
   H     57.37000000    58.83000000    53.70000000
   H     57.10000000    59.09000000    55.17000000

Ca 1.00



