%chk=loop3.apoCaM-CA-Ng.Init295.run23.water3.chk
%nprocshared=20
%mem=10GB
%nosave
#b3lyp/svp scf=(tight,noincore,xqc) Test 
#IOP(5/87=12) Density=Current Pop=(MK,readradii) iop(6/33=2) iop(6/42=6)

loop3.apoCaM-CA-Ng.Init295.run23.water3 

   0  1 
   C     94.87000000    34.08000000    36.07000000
   C     96.31000000    34.55000000    36.26000000
   O     96.53000000    35.42000000    37.09000000
   H     94.24100000    34.93200000    35.81100000
   H     94.83100000    33.34300000    35.26800000
   H     94.50900000    33.63100000    36.99500000
   N     97.29000000    33.99000000    35.55000000
   C     98.66000000    34.47000000    35.52000000
   C     99.16000000    34.95000000    34.17000000
   O     98.86000000    34.35000000    33.14000000
   C     99.54000000    33.37000000    36.10000000
   C    101.01000000    33.79000000    36.16000000
   O    101.39000000    34.28000000    37.24000000
   O    101.76000000    33.82000000    35.16000000
   H     97.06000000    33.25000000    34.90000000
   H     98.72000000    35.33000000    36.18000000
   H     99.44000000    32.46000000    35.51000000
   H     99.16000000    33.13000000    37.10000000
   N     99.85000000    36.09000000    34.08000000
   C    100.33000000    36.77000000    32.90000000
   C    101.48000000    36.21000000    32.07000000
   O    101.96000000    36.83000000    31.13000000
   C    100.58000000    38.22000000    33.30000000
   C     99.26000000    38.94000000    33.55000000
   C     99.56000000    40.26000000    34.26000000
   C     98.24000000    41.02000000    34.41000000
   N     98.40000000    42.39000000    34.93000000
   H    100.17000000    36.41000000    34.98000000
   H     99.49000000    36.72000000    32.21000000
   H    101.07000000    38.76000000    32.49000000
   H    101.23000000    38.27000000    34.17000000
   H     98.51000000    38.37000000    34.11000000
   H     98.72000000    39.08000000    32.62000000
   H    100.20000000    40.80000000    33.57000000
   H    100.02000000    40.05000000    35.22000000
   H     97.65000000    40.47000000    35.14000000
   H     97.72000000    41.01000000    33.46000000
   H     98.85000000    42.44000000    35.83000000
   H     98.87000000    43.04000000    34.32000000
   H     97.55000000    42.91000000    35.11000000
   N    101.84000000    34.94000000    32.32000000
   C    102.77000000    34.24000000    31.46000000
   C    102.59000000    32.73000000    31.60000000
   O    102.99000000    31.96000000    30.73000000
   C    104.23000000    34.52000000    31.78000000
   C    104.38000000    34.63000000    33.29000000
   O    104.71000000    33.64000000    33.97000000
   O    104.26000000    35.70000000    33.93000000
   H    101.54000000    34.56000000    33.20000000
   H    102.67000000    34.60000000    30.44000000
   H    104.60000000    35.45000000    31.34000000
   H    104.92000000    33.74000000    31.45000000
   N    102.05000000    32.21000000    32.70000000
   C    101.85000000    30.79000000    32.89000000
   C    101.98000000    30.36000000    34.34000000
   O    100.97000000    29.93000000    34.89000000
   H    102.03000000    32.84000000    33.49000000
   H    102.61000000    30.15000000    32.43000000
   H    100.90000000    30.53000000    32.41000000
   N    103.14000000    30.23000000    34.99000000
   C    103.18000000    29.77000000    36.36000000
   C    102.83000000    30.93000000    37.28000000
   O    103.35000000    32.02000000    37.05000000
   C    104.64000000    29.34000000    36.51000000
   C    104.97000000    28.67000000    37.84000000
   N    105.43000000    27.42000000    37.78000000
   O    104.83000000    29.22000000    38.93000000
   H    103.99000000    30.42000000    34.47000000
   H    102.57000000    28.89000000    36.57000000
   H    105.30000000    30.20000000    36.43000000
   H    105.08000000    28.70000000    35.74000000
   H    105.50000000    26.97000000    36.88000000
   H    105.74000000    26.98000000    38.63000000
   N    102.17000000    30.62000000    38.40000000
   C    101.81000000    31.51000000    39.48000000
   C    102.93000000    32.12000000    40.32000000
   O    102.56000000    32.83000000    41.25000000
   H    101.94000000    29.66000000    38.61000000
   H    101.30000000    30.81000000    40.15000000
   H    101.07000000    32.28000000    39.28000000
   N    104.23000000    31.88000000    40.12000000
   C    105.32000000    32.67000000    40.65000000
   C    105.11000000    34.07000000    40.10000000
   O    104.57000000    34.27000000    39.02000000
   C    106.75000000    32.25000000    40.35000000
   C    107.14000000    30.89000000    40.87000000
   C    107.72000000    29.90000000    40.07000000
   C    107.01000000    30.60000000    42.23000000
   C    107.96000000    28.60000000    40.54000000
   C    107.18000000    29.31000000    42.74000000
   C    107.72000000    28.31000000    41.89000000
   O    107.90000000    27.05000000    42.39000000
   H    104.47000000    31.37000000    39.28000000
   H    105.27000000    32.75000000    41.74000000
   H    107.41000000    32.97000000    40.83000000
   H    106.90000000    32.29000000    39.27000000
   H    107.90000000    30.15000000    39.03000000
   H    106.61000000    31.33000000    42.92000000
   H    108.36000000    27.85000000    39.87000000
   H    107.01000000    29.14000000    43.79000000
   H    107.38000000    26.95000000    43.19000000
   N    105.55000000    35.00000000    40.95000000
   C    105.67000000    36.44000000    40.86000000
   C    106.71000000    37.07000000    39.94000000
   O    107.21000000    36.35000000    39.08000000
   C    104.30000000    37.12000000    40.92000000
   C    103.40000000    36.49000000    41.98000000
   C    103.58000000    37.11000000    39.58000000
   C    102.08000000    37.26000000    42.06000000
   H    105.91000000    34.54000000    41.78000000
   H    106.06000000    36.68000000    41.84000000
   H    104.38000000    38.15000000    41.27000000
   H    103.94000000    36.66000000    42.91000000
   H    103.27000000    35.44000000    41.73000000
   H    104.23000000    37.30000000    38.73000000
   H    103.16000000    36.11000000    39.43000000
   H    102.81000000    37.84000000    39.35000000
   H    101.50000000    36.81000000    42.87000000
   H    102.29000000    38.32000000    42.15000000
   H    101.43000000    37.03000000    41.22000000
   N    107.03000000    38.36000000    40.08000000
   C    108.19000000    38.97000000    39.47000000
   C    109.36000000    39.21000000    40.41000000
   O    110.45000000    39.58000000    40.01000000
   C    107.79000000    40.37000000    39.01000000
   O    107.03000000    41.02000000    40.00000000
   H    106.70000000    38.84000000    40.91000000
   H    108.57000000    38.36000000    38.65000000
   H    107.12000000    40.30000000    38.15000000
   H    108.70000000    40.89000000    38.71000000
   H    106.77000000    41.86000000    39.61000000
   N    109.19000000    38.95000000    41.71000000
   C    110.12000000    39.15000000    42.80000000
   C    111.30000000    40.10000000    42.63000000
   O    112.45000000    39.68000000    42.68000000
   C    110.47000000    37.74000000    43.29000000
   H    108.30000000    38.53000000    41.96000000
   H    109.46000000    39.56000000    43.57000000
   H    111.23000000    37.32000000    42.64000000
   H    110.90000000    37.85000000    44.29000000
   H    109.60000000    37.08000000    43.24000000
   N    111.12000000    41.36000000    42.23000000
   C    109.92000000    42.16000000    42.37000000
   C    109.71000000    42.80000000    43.73000000
   O    110.73000000    43.17000000    44.31000000
   C    109.90000000    43.24000000    41.29000000
   H    112.02000000    41.80000000    42.11000000
   H    109.00000000    41.64000000    42.09000000
   H    109.17000000    44.04000000    41.35000000
   H    110.87000000    43.75000000    41.26000000
   H    109.96000000    42.74000000    40.32000000
   N    108.56000000    42.83000000    44.40000000
   C    107.26000000    42.40000000    43.93000000
   C    106.32000000    41.87000000    45.00000000
   O    105.60000000    40.90000000    44.76000000
   C    106.62000000    43.70000000    43.43000000
   C    105.67000000    43.48000000    42.25000000
   C    104.59000000    44.56000000    42.21000000
   O    103.79000000    44.63000000    43.17000000
   O    104.57000000    45.41000000    41.30000000
   H    108.50000000    43.39000000    45.24000000
   H    107.31000000    41.65000000    43.14000000
   H    107.35000000    44.42000000    43.07000000
   H    106.07000000    44.13000000    44.26000000
   H    105.22000000    42.49000000    42.19000000
   H    106.14000000    43.48000000    41.27000000
   N    106.32000000    42.43000000    46.21000000
   C    105.60000000    42.09000000    47.43000000
   H    104.60200000    41.73300000    47.17500000
   H    106.13900000    41.30800000    47.96500000
   H    105.51800000    42.97400000    48.06300000
   H    106.97000000    43.19000000    46.29000000
  Ca    103.94900000    34.56000000    36.47000000
   O    106.17900000    36.08000000    36.52000000
   H    106.84900000    35.95000000    37.19000000
   H    106.18900000    37.02000000    36.34000000
   O    102.69900000    36.87000000    36.65000000
   H    103.02900000    37.76000000    36.77000000
   H    101.78900000    36.90000000    36.96000000
   O    106.18900000    32.84000000    36.29000000
   H    106.70900000    32.20000000    36.79000000
   H    106.26900000    32.55000000    35.38000000

Ca 1.00



