%chk=loop4.holoCaM.run12.water1.chk
%nprocshared=20
%mem=10GB
%nosave
#b3lyp/svp scf=(tight,noincore,xqc) Test 
#IOP(5/87=12) Density=Current Pop=(MK,readradii) iop(6/33=2) iop(6/42=6)

loop4.holoCaM.run12.water1 

   -3  1 
   C     30.55000000    32.82000000    29.05000000
   C     31.74000000    32.03000000    29.59000000
   O     32.50000000    31.48000000    28.79000000
   H     29.73000000    32.77600000    29.76700000
   H     30.84200000    33.85900000    28.89600000
   H     30.22700000    32.38900000    28.10300000
   N     31.73000000    31.76000000    30.89000000
   C     32.47000000    30.71000000    31.56000000
   C     32.02000000    29.37000000    30.98000000
   O     30.80000000    29.20000000    30.88000000
   C     32.22000000    30.86000000    33.05000000
   C     32.82000000    29.69000000    33.82000000
   O     33.94000000    29.26000000    33.47000000
   O     32.25000000    29.48000000    34.92000000
   H     31.13000000    32.29000000    31.51000000
   H     33.52000000    30.83000000    31.27000000
   H     31.15000000    30.97000000    33.23000000
   H     32.73000000    31.77000000    33.37000000
   N     32.88000000    28.39000000    30.72000000
   C     32.60000000    27.06000000    30.22000000
   C     32.77000000    26.09000000    31.38000000
   O     32.11000000    25.07000000    31.26000000
   C     33.55000000    26.80000000    29.05000000
   C     33.23000000    27.69000000    27.85000000
   C     33.60000000    25.36000000    28.55000000
   C     34.12000000    27.52000000    26.63000000
   H     33.83000000    28.55000000    31.01000000
   H     31.55000000    26.90000000    29.99000000
   H     34.60000000    26.97000000    29.29000000
   H     33.31000000    28.73000000    28.16000000
   H     32.18000000    27.58000000    27.58000000
   H     33.64000000    24.64000000    29.37000000
   H     32.76000000    25.17000000    27.87000000
   H     34.52000000    25.29000000    27.97000000
   H     33.79000000    28.29000000    25.94000000
   H     35.15000000    27.58000000    26.98000000
   H     33.97000000    26.56000000    26.14000000
   N     33.61000000    26.30000000    32.41000000
   C     34.05000000    25.31000000    33.36000000
   C     33.63000000    25.39000000    34.82000000
   O     33.93000000    24.49000000    35.61000000
   C     35.55000000    25.15000000    33.12000000
   C     36.39000000    26.38000000    33.43000000
   O     36.24000000    26.95000000    34.53000000
   O     37.03000000    26.99000000    32.55000000
   H     34.08000000    27.20000000    32.42000000
   H     33.61000000    24.35000000    33.10000000
   H     35.78000000    25.08000000    32.06000000
   H     35.94000000    24.23000000    33.56000000
   N     32.96000000    26.47000000    35.22000000
   C     32.39000000    26.68000000    36.54000000
   C     33.26000000    27.45000000    37.52000000
   O     33.78000000    26.90000000    38.49000000
   H     32.77000000    27.18000000    34.54000000
   H     32.22000000    25.70000000    37.00000000
   H     31.43000000    27.19000000    36.43000000
   N     33.52000000    28.74000000    37.28000000
   C     34.23000000    29.69000000    38.11000000
   C     33.94000000    31.17000000    37.92000000
   O     34.50000000    31.97000000    38.67000000
   C     35.73000000    29.44000000    38.06000000
   C     36.50000000    29.71000000    36.77000000
   O     36.01000000    30.39000000    35.84000000
   O     37.69000000    29.37000000    36.57000000
   H     33.21000000    29.06000000    36.37000000
   H     34.02000000    29.51000000    39.17000000
   H     35.91000000    28.42000000    38.39000000
   H     36.10000000    30.11000000    38.83000000
   N     33.14000000    31.50000000    36.91000000
   C     32.82000000    32.89000000    36.62000000
   C     33.92000000    33.75000000    36.02000000
   O     33.87000000    34.98000000    36.12000000
   H     32.86000000    30.82000000    36.22000000
   H     32.49000000    33.39000000    37.53000000
   H     31.89000000    32.92000000    36.06000000
   N     34.95000000    33.21000000    35.37000000
   C     36.12000000    33.94000000    34.91000000
   C     36.57000000    33.15000000    33.69000000
   O     36.41000000    31.94000000    33.52000000
   C     37.31000000    34.02000000    35.87000000
   C     37.96000000    32.78000000    36.46000000
   C     39.02000000    32.96000000    37.54000000
   N     39.46000000    31.90000000    38.23000000
   O     39.57000000    34.04000000    37.71000000
   H     35.00000000    32.21000000    35.47000000
   H     35.82000000    34.94000000    34.62000000
   H     36.99000000    34.66000000    36.70000000
   H     38.10000000    34.60000000    35.40000000
   H     38.41000000    32.27000000    35.60000000
   H     37.19000000    32.15000000    36.91000000
   H     39.25000000    30.97000000    37.90000000
   H     40.45000000    31.88000000    38.42000000
   N     37.16000000    33.86000000    32.73000000
   C     37.59000000    33.42000000    31.42000000
   C     39.11000000    33.38000000    31.37000000
   O     39.78000000    34.33000000    31.75000000
   C     36.97000000    34.24000000    30.28000000
   C     35.46000000    34.02000000    30.28000000
   C     37.32000000    35.71000000    30.42000000
   H     37.38000000    34.80000000    33.01000000
   H     37.30000000    32.37000000    31.32000000
   H     37.24000000    33.99000000    29.25000000
   H     35.04000000    34.27000000    29.30000000
   H     35.25000000    33.00000000    30.61000000
   H     34.99000000    34.68000000    31.00000000
   H     37.13000000    36.03000000    31.44000000
   H     38.36000000    36.01000000    30.28000000
   H     36.71000000    36.23000000    29.68000000
   N     39.72000000    32.24000000    31.05000000
   C     41.00000000    32.11000000    30.38000000
   C     40.85000000    32.50000000    28.92000000
   O     39.79000000    32.84000000    28.40000000
   C     41.65000000    30.74000000    30.52000000
   C     41.13000000    29.74000000    29.50000000
   N     40.29000000    28.84000000    29.99000000
   O     41.71000000    29.56000000    28.42000000
   H     39.08000000    31.46000000    30.94000000
   H     41.69000000    32.82000000    30.83000000
   H     41.58000000    30.35000000    31.54000000
   H     42.70000000    30.95000000    30.31000000
   H     40.23000000    28.79000000    30.99000000
   H     40.03000000    28.00000000    29.48000000
   N     41.94000000    32.47000000    28.15000000
   C     42.04000000    32.93000000    26.78000000
   C     40.98000000    32.29000000    25.89000000
   O     40.37000000    32.98000000    25.07000000
   C     43.37000000    32.53000000    26.15000000
   C     43.54000000    32.85000000    24.69000000
   C     43.52000000    34.17000000    24.23000000
   C     43.52000000    31.85000000    23.71000000
   C     43.42000000    34.44000000    22.86000000
   C     43.44000000    32.12000000    22.34000000
   C     43.36000000    33.45000000    21.86000000
   O     43.26000000    33.65000000    20.51000000
   H     42.77000000    32.10000000    28.59000000
   H     41.94000000    34.01000000    26.75000000
   H     43.46000000    31.45000000    26.30000000
   H     44.12000000    33.04000000    26.76000000
   H     43.24000000    34.93000000    24.94000000
   H     43.56000000    30.82000000    24.04000000
   H     43.36000000    35.45000000    22.50000000
   H     43.28000000    31.31000000    21.65000000
   H     43.30000000    32.80000000    20.05000000
   N     40.83000000    30.96000000    25.94000000
   C     39.97000000    30.13000000    25.12000000
   C     38.49000000    30.40000000    25.36000000
   O     37.71000000    30.45000000    24.42000000
   C     40.43000000    28.73000000    25.48000000
   C     39.80000000    27.79000000    24.46000000
   C     40.39000000    26.39000000    24.58000000
   O     41.14000000    26.00000000    25.50000000
   O     40.12000000    25.58000000    23.66000000
   H     41.38000000    30.43000000    26.59000000
   H     40.12000000    30.40000000    24.07000000
   H     40.15000000    28.52000000    26.51000000
   H     41.51000000    28.60000000    25.44000000
   H     39.93000000    28.24000000    23.47000000
   H     38.72000000    27.75000000    24.59000000
   N     38.16000000    30.72000000    26.62000000
   C     36.80000000    31.10000000    26.96000000
   C     36.48000000    32.48000000    26.39000000
   O     35.38000000    32.73000000    25.90000000
   C     36.53000000    31.08000000    28.46000000
   C     36.70000000    29.70000000    29.10000000
   C     36.68000000    29.76000000    30.62000000
   O     37.63000000    30.13000000    31.35000000
   O     35.66000000    29.30000000    31.18000000
   H     38.90000000    30.88000000    27.29000000
   H     36.17000000    30.36000000    26.48000000
   H     35.48000000    31.38000000    28.51000000
   H     37.16000000    31.78000000    29.01000000
   H     37.66000000    29.31000000    28.76000000
   H     35.90000000    29.07000000    28.72000000
   N     37.38000000    33.45000000    26.56000000
   C     37.29000000    34.85000000    26.23000000
   H     36.49200000    35.31000000    26.81300000
   H     38.23600000    35.34000000    26.46000000
   H     37.07200000    34.96000000    25.16800000
   H     38.21000000    33.21000000    27.08000000
  Ca     36.64000000    29.35000000    33.54000000
   O     39.15000000    29.49000000    34.22000000
   H     39.75000000    28.79000000    33.97000000
   H     39.15000000    29.47000000    35.17000000

Ca 1.00



