%chk=loop3.holoCaM.run49.water2.chk
%nprocshared=20
%mem=10GB
%nosave
#b3lyp/svp scf=(tight,noincore,xqc) Test 
#IOP(5/87=12) Density=Current Pop=(MK,readradii) iop(6/33=2) iop(6/42=6)

loop3.holoCaM.run49.water2 

   0  1 
   C     81.65000000    59.64000000    19.66000000
   C     81.78000000    60.61000000    20.82000000
   O     81.42000000    60.35000000    21.97000000
   H     81.01000000    60.07600000    18.89300000
   H     82.63600000    59.44100000    19.24000000
   H     81.21000000    58.70700000    20.01300000
   N     81.99000000    61.88000000    20.46000000
   C     81.77000000    63.04000000    21.31000000
   C     80.35000000    63.21000000    21.82000000
   O     79.56000000    63.95000000    21.23000000
   C     82.29000000    64.29000000    20.59000000
   C     82.49000000    65.43000000    21.58000000
   O     82.90000000    66.54000000    21.18000000
   O     82.07000000    65.32000000    22.75000000
   H     82.07000000    62.09000000    19.48000000
   H     82.43000000    62.89000000    22.17000000
   H     81.58000000    64.59000000    19.82000000
   H     83.26000000    64.10000000    20.14000000
   N     79.94000000    62.59000000    22.93000000
   C     78.55000000    62.55000000    23.30000000
   C     77.96000000    63.92000000    23.57000000
   O     76.84000000    64.25000000    23.17000000
   C     78.31000000    61.57000000    24.46000000
   C     78.66000000    60.10000000    24.25000000
   C     77.83000000    59.46000000    23.14000000
   C     78.44000000    58.12000000    22.73000000
   N     77.69000000    57.52000000    21.62000000
   H     80.60000000    61.94000000    23.34000000
   H     78.00000000    62.17000000    22.44000000
   H     77.25000000    61.57000000    24.69000000
   H     78.79000000    62.01000000    25.33000000
   H     78.37000000    59.56000000    25.15000000
   H     79.74000000    60.01000000    24.10000000
   H     77.81000000    60.07000000    22.23000000
   H     76.84000000    59.20000000    23.51000000
   H     78.53000000    57.49000000    23.62000000
   H     79.43000000    58.29000000    22.31000000
   H     77.99000000    56.62000000    21.29000000
   H     76.72000000    57.40000000    21.89000000
   H     77.73000000    58.06000000    20.76000000
   N     78.65000000    64.82000000    24.28000000
   C     78.20000000    66.17000000    24.51000000
   C     78.65000000    67.17000000    23.46000000
   O     78.29000000    68.35000000    23.51000000
   C     78.62000000    66.61000000    25.91000000
   C     80.02000000    66.23000000    26.38000000
   O     80.32000000    66.09000000    27.59000000
   O     80.88000000    65.98000000    25.51000000
   H     79.54000000    64.55000000    24.67000000
   H     77.11000000    66.10000000    24.48000000
   H     77.89000000    66.13000000    26.57000000
   H     78.42000000    67.68000000    25.97000000
   N     79.57000000    66.85000000    22.55000000
   C     79.91000000    67.71000000    21.43000000
   C     80.70000000    68.93000000    21.87000000
   O     80.51000000    70.00000000    21.30000000
   H     79.77000000    65.86000000    22.51000000
   H     79.02000000    68.02000000    20.87000000
   H     80.50000000    67.16000000    20.70000000
   N     81.49000000    68.83000000    22.94000000
   C     82.29000000    69.95000000    23.38000000
   C     83.57000000    70.02000000    22.56000000
   O     84.44000000    70.84000000    22.89000000
   C     82.50000000    69.85000000    24.89000000
   C     83.57000000    68.83000000    25.26000000
   N     84.71000000    69.25000000    25.83000000
   O     83.48000000    67.63000000    25.05000000
   H     81.62000000    67.89000000    23.29000000
   H     81.66000000    70.82000000    23.25000000
   H     81.59000000    69.48000000    25.36000000
   H     82.78000000    70.81000000    25.33000000
   H     84.78000000    70.23000000    26.06000000
   H     85.45000000    68.57000000    25.98000000
   N     83.69000000    69.28000000    21.46000000
   C     84.82000000    69.44000000    20.56000000
   C     85.84000000    68.32000000    20.62000000
   O     86.80000000    68.29000000    19.84000000
   H     83.10000000    68.48000000    21.31000000
   H     85.27000000    70.43000000    20.55000000
   H     84.33000000    69.34000000    19.59000000
   N     85.69000000    67.37000000    21.54000000
   C     86.72000000    66.41000000    21.87000000
   C     86.09000000    65.06000000    22.21000000
   O     85.16000000    65.04000000    23.02000000
   C     87.63000000    66.85000000    23.01000000
   C     88.29000000    68.19000000    22.87000000
   C     87.56000000    69.28000000    23.35000000
   C     89.58000000    68.35000000    22.34000000
   C     88.16000000    70.55000000    23.36000000
   C     90.12000000    69.63000000    22.20000000
   C     89.44000000    70.71000000    22.79000000
   O     89.97000000    71.97000000    22.78000000
   H     84.79000000    67.20000000    21.97000000
   H     87.30000000    66.25000000    20.96000000
   H     88.38000000    66.06000000    23.09000000
   H     87.11000000    66.84000000    23.97000000
   H     86.55000000    69.26000000    23.75000000
   H     90.06000000    67.47000000    21.94000000
   H     87.66000000    71.39000000    23.81000000
   H     91.13000000    69.78000000    21.85000000
   H     90.83000000    72.00000000    22.35000000
   N     86.69000000    63.97000000    21.75000000
   C     86.60000000    62.62000000    22.28000000
   C     87.67000000    62.44000000    23.35000000
   O     88.87000000    62.64000000    23.15000000
   C     86.69000000    61.66000000    21.10000000
   C     85.69000000    61.93000000    19.98000000
   C     86.69000000    60.19000000    21.53000000
   C     85.98000000    61.04000000    18.77000000
   H     87.53000000    64.08000000    21.19000000
   H     85.66000000    62.52000000    22.81000000
   H     87.68000000    61.87000000    20.71000000
   H     85.77000000    62.99000000    19.73000000
   H     84.65000000    61.83000000    20.28000000
   H     87.45000000    60.02000000    22.29000000
   H     85.72000000    59.94000000    21.96000000
   H     86.95000000    59.54000000    20.69000000
   H     85.47000000    61.48000000    17.91000000
   H     87.05000000    60.89000000    18.68000000
   H     85.46000000    60.09000000    18.88000000
   N     87.23000000    61.91000000    24.49000000
   C     88.07000000    61.53000000    25.61000000
   C     88.18000000    60.02000000    25.75000000
   O     87.56000000    59.40000000    24.89000000
   C     87.36000000    62.16000000    26.81000000
   O     86.07000000    61.64000000    27.01000000
   H     86.22000000    61.87000000    24.50000000
   H     89.07000000    61.96000000    25.66000000
   H     87.47000000    63.23000000    26.62000000
   H     87.89000000    61.82000000    27.70000000
   H     85.49000000    62.07000000    26.38000000
   N     88.86000000    59.46000000    26.75000000
   C     88.99000000    58.02000000    26.83000000
   C     87.68000000    57.24000000    26.85000000
   O     87.47000000    56.31000000    26.09000000
   C     89.90000000    57.72000000    28.02000000
   H     89.45000000    60.10000000    27.26000000
   H     89.49000000    57.73000000    25.91000000
   H     90.27000000    56.69000000    28.01000000
   H     90.72000000    58.43000000    28.10000000
   H     89.32000000    57.86000000    28.93000000
   N     86.78000000    57.65000000    27.76000000
   C     85.49000000    57.02000000    27.91000000
   C     84.58000000    57.18000000    26.70000000
   O     83.75000000    56.31000000    26.42000000
   C     84.92000000    57.64000000    29.19000000
   H     87.00000000    58.44000000    28.35000000
   H     85.57000000    55.96000000    28.16000000
   H     84.11000000    57.08000000    29.66000000
   H     85.73000000    57.83000000    29.89000000
   H     84.55000000    58.64000000    28.98000000
   N     84.83000000    58.18000000    25.85000000
   C     84.21000000    58.20000000    24.54000000
   C     85.00000000    57.44000000    23.49000000
   O     84.34000000    56.89000000    22.60000000
   C     84.10000000    59.65000000    24.08000000
   C     83.12000000    60.43000000    24.95000000
   C     83.31000000    61.94000000    25.02000000
   O     82.30000000    62.67000000    24.93000000
   O     84.40000000    62.54000000    25.01000000
   H     85.53000000    58.89000000    26.01000000
   H     83.17000000    57.89000000    24.61000000
   H     83.81000000    59.73000000    23.03000000
   H     85.09000000    60.09000000    24.19000000
   H     83.21000000    60.08000000    25.98000000
   H     82.13000000    60.20000000    24.54000000
   N     86.33000000    57.32000000    23.53000000
   C     87.09000000    56.53000000    22.60000000
   H     88.07100000    56.31400000    23.02400000
   H     86.56600000    55.59500000    22.40400000
   H     87.21100000    57.08200000    21.66800000
   H     86.81000000    57.81000000    24.28000000
  Ca     83.29000000    65.04000000    24.98000000
   O     85.72000000    65.53000000    25.91000000
   H     86.67000000    65.68000000    25.86000000
   H     85.49000000    65.75000000    26.81000000
   O     82.41000000    64.51000000    27.54000000
   H     82.52000000    64.33000000    28.47000000
   H     81.70000000    65.15000000    27.51000000

Ca 1.00



