%chk=loop2.apoCaM-CA-Ng.Init31.run73.water8.chk
%nprocshared=20
%mem=10GB
%nosave
#b3lyp/svp scf=(tight,noincore,xqc) Test 
#IOP(5/87=12) Density=Current Pop=(MK,readradii) iop(6/33=2) iop(6/42=6)

loop2.apoCaM-CA-Ng.Init31.run73.water8 

   -2  1 
   C     92.02000000    61.75000000    12.49000000
   C     90.94000000    62.68000000    11.95000000
   O     90.06000000    63.07000000    12.72000000
   H     92.88800000    62.33700000    12.79000000
   H     91.63400000    61.20600000    13.35200000
   H     92.31200000    61.04200000    11.71400000
   N     90.95000000    63.17000000    10.71000000
   C     91.71000000    62.86000000     9.52000000
   C     91.45000000    61.59000000     8.72000000
   O     90.38000000    61.00000000     8.88000000
   C     91.54000000    64.03000000     8.56000000
   C     90.09000000    64.45000000     8.33000000
   O     89.47000000    64.23000000     7.27000000
   O     89.42000000    65.05000000     9.19000000
   H     90.34000000    63.97000000    10.63000000
   H     92.76000000    62.84000000     9.82000000
   H     91.88000000    63.70000000     7.58000000
   H     92.06000000    64.90000000     8.94000000
   N     92.39000000    61.13000000     7.89000000
   C     92.39000000    59.93000000     7.08000000
   C     91.23000000    59.71000000     6.12000000
   O     90.14000000    59.37000000     6.57000000
   C     92.59000000    58.74000000     8.01000000
   H     93.28000000    61.60000000     7.97000000
   H     93.34000000    59.92000000     6.55000000
   H     92.89000000    57.85000000     7.46000000
   H     93.43000000    59.03000000     8.63000000
   H     91.74000000    58.60000000     8.68000000
   N     91.49000000    59.60000000     4.81000000
   C     90.56000000    59.27000000     3.75000000
   C     90.62000000    57.79000000     3.39000000
   O     91.72000000    57.24000000     3.47000000
   C     90.67000000    60.05000000     2.45000000
   C     92.03000000    60.00000000     1.75000000
   O     93.06000000    60.30000000     2.39000000
   O     92.08000000    59.85000000     0.51000000
   H     92.41000000    59.93000000     4.54000000
   H     89.59000000    59.52000000     4.18000000
   H     90.39000000    61.09000000     2.61000000
   H     89.91000000    59.81000000     1.70000000
   N     89.56000000    57.18000000     2.87000000
   C     89.65000000    55.88000000     2.23000000
   C     88.30000000    55.30000000     1.83000000
   O     87.24000000    55.92000000     1.86000000
   H     88.81000000    57.85000000     2.76000000
   H     90.18000000    55.10000000     2.77000000
   H     90.18000000    55.99000000     1.28000000
   N     88.31000000    54.04000000     1.40000000
   C     87.29000000    53.46000000     0.54000000
   C     86.38000000    52.48000000     1.29000000
   O     85.38000000    52.01000000     0.76000000
   C     87.89000000    53.00000000    -0.78000000
   C     88.61000000    54.16000000    -1.45000000
   N     87.92000000    55.22000000    -1.88000000
   O     89.83000000    54.25000000    -1.51000000
   H     89.17000000    53.51000000     1.44000000
   H     86.62000000    54.24000000     0.18000000
   H     86.97000000    52.80000000    -1.34000000
   H     88.48000000    52.09000000    -0.68000000
   H     86.92000000    55.18000000    -2.04000000
   H     88.38000000    56.10000000    -2.03000000
   N     86.75000000    52.06000000     2.50000000
   C     86.10000000    51.08000000     3.34000000
   C     86.39000000    49.61000000     3.03000000
   O     86.87000000    49.31000000     1.94000000
   H     87.65000000    52.40000000     2.82000000
   H     85.03000000    51.26000000     3.26000000
   H     86.42000000    51.29000000     4.36000000
   N     86.04000000    48.72000000     3.96000000
   C     85.22000000    48.86000000     5.14000000
   C     85.69000000    48.11000000     6.37000000
   O     85.09000000    48.25000000     7.44000000
   C     83.79000000    48.46000000     4.80000000
   C     83.10000000    49.31000000     3.74000000
   O     83.81000000    47.18000000     4.20000000
   H     86.06000000    47.77000000     3.62000000
   H     85.17000000    49.87000000     5.55000000
   H     83.15000000    48.50000000     5.69000000
   H     83.29000000    46.62000000     4.78000000
   H     83.66000000    49.58000000     2.84000000
   H     82.17000000    48.85000000     3.43000000
   H     82.86000000    50.32000000     4.07000000
   N     86.86000000    47.50000000     6.21000000
   C     87.59000000    46.69000000     7.16000000
   C     86.94000000    45.32000000     7.33000000
   O     85.78000000    45.24000000     7.72000000
   C     87.90000000    47.43000000     8.46000000
   C     88.59000000    48.77000000     8.23000000
   C     88.73000000    46.60000000     9.43000000
   C     89.90000000    48.78000000     7.45000000
   H     87.32000000    47.56000000     5.31000000
   H     88.57000000    46.64000000     6.67000000
   H     86.91000000    47.50000000     8.90000000
   H     88.77000000    49.35000000     9.14000000
   H     87.88000000    49.38000000     7.67000000
   H     88.27000000    45.65000000     9.71000000
   H     89.62000000    46.11000000     9.04000000
   H     88.99000000    47.18000000    10.31000000
   H     90.37000000    49.76000000     7.48000000
   H     90.60000000    48.08000000     7.91000000
   H     89.75000000    48.41000000     6.43000000
   N     87.66000000    44.20000000     7.20000000
   C     89.01000000    44.05000000     6.71000000
   C     90.20000000    43.97000000     7.66000000
   O     91.28000000    44.45000000     7.34000000
   C     88.92000000    42.89000000     5.73000000
   C     88.26000000    41.61000000     6.21000000
   O     87.62000000    41.61000000     7.28000000
   O     88.33000000    40.60000000     5.48000000
   H     87.17000000    43.35000000     7.42000000
   H     89.36000000    44.88000000     6.10000000
   H     89.95000000    42.68000000     5.43000000
   H     88.35000000    43.13000000     4.84000000
   N     90.04000000    43.26000000     8.79000000
   C     91.14000000    42.97000000     9.68000000
   C     91.27000000    41.46000000     9.79000000
   O     90.34000000    40.74000000     9.46000000
   C     90.95000000    43.76000000    10.98000000
   C     89.96000000    43.15000000    11.94000000
   C     88.59000000    43.15000000    11.62000000
   C     90.43000000    42.66000000    13.16000000
   C     87.68000000    42.60000000    12.52000000
   C     89.56000000    42.02000000    14.04000000
   C     88.22000000    41.95000000    13.64000000
   H     89.14000000    42.88000000     9.00000000
   H     92.11000000    43.36000000     9.38000000
   H     90.64000000    44.78000000    10.77000000
   H     91.87000000    43.85000000    11.55000000
   H     88.23000000    43.49000000    10.66000000
   H     91.48000000    42.71000000    13.41000000
   H     86.71000000    42.28000000    12.17000000
   H     89.88000000    41.46000000    14.90000000
   H     87.46000000    41.55000000    14.30000000
   N     92.41000000    40.91000000    10.23000000
   C     93.68000000    41.54000000    10.54000000
   C     94.55000000    42.02000000     9.38000000
   O     94.09000000    41.78000000     8.27000000
   C     94.44000000    40.60000000    11.47000000
   C     93.97000000    39.24000000    10.96000000
   C     92.54000000    39.49000000    10.48000000
   H     93.44000000    42.42000000    11.14000000
   H     95.52000000    40.76000000    11.47000000
   H     94.06000000    40.80000000    12.47000000
   H     94.63000000    38.94000000    10.15000000
   H     94.04000000    38.51000000    11.77000000
   H     92.24000000    38.93000000     9.60000000
   H     91.87000000    39.25000000    11.31000000
   N     95.66000000    42.74000000     9.55000000
   C     96.53000000    43.27000000     8.52000000
   C     97.08000000    44.63000000     8.93000000
   O     98.13000000    45.03000000     8.43000000
   C     97.66000000    42.26000000     8.33000000
   C     97.23000000    40.89000000     7.80000000
   C     98.45000000    39.98000000     7.74000000
   O     98.52000000    39.15000000     8.67000000
   O     98.94000000    39.84000000     6.60000000
   H     95.87000000    43.03000000    10.49000000
   H     96.09000000    43.51000000     7.55000000
   H     98.06000000    42.06000000     9.32000000
   H     98.40000000    42.63000000     7.62000000
   H     96.75000000    41.00000000     6.83000000
   H     96.56000000    40.42000000     8.52000000
   N     96.50000000    45.41000000     9.85000000
   C     95.18000000    45.55000000    10.43000000
   H     94.45800000    45.00200000     9.82500000
   H     95.18300000    45.14900000    11.44300000
   H     94.90400000    46.60400000    10.45700000
   H     97.06000000    46.23000000    10.05000000
  Ca     95.38000000    60.54000000     3.27000000
   O     95.61000000    59.71000000     5.86000000
   H     96.27000000    59.71000000     6.56000000
   H     95.21000000    58.84000000     5.91000000
   O     94.37000000    58.07000000     3.66000000
   H     94.75000000    57.19000000     3.72000000
   H     93.46000000    57.91000000     3.40000000
   O     97.21000000    58.62000000     3.60000000
   H     98.16000000    58.73000000     3.55000000
   H     97.09000000    57.71000000     3.86000000
   O     95.13000000    59.75000000     0.70000000
   H     94.18000000    59.85000000     0.73000000
   H     95.41000000    60.38000000     0.03000000
   O     94.65000000    62.67000000     1.98000000
   H     93.84000000    63.17000000     1.88000000
   H     95.28000000    63.10000000     1.41000000
   O     93.80000000    61.80000000     5.04000000
   H     92.96000000    62.17000000     4.78000000
   H     94.06000000    62.30000000     5.81000000
   O     97.75000000    61.12000000     2.04000000
   H     98.51000000    60.65000000     2.37000000
   H     97.94000000    61.25000000     1.11000000
   O     97.00000000    62.28000000     4.63000000
   H     96.94000000    62.26000000     5.59000000
   H     97.10000000    63.21000000     4.42000000

Ca 1.00



