%chk=loop2.holoCaM.run62.water2.chk
%nprocshared=20
%mem=10GB
%nosave
#b3lyp/svp scf=(tight,noincore,xqc) Test 
#IOP(5/87=12) Density=Current Pop=(MK,readradii) iop(6/33=2) iop(6/42=6)

loop2.holoCaM.run62.water2 

   -2  1 
   C     64.29000000    59.39000000    15.20000000
   C     63.34000000    59.38000000    16.39000000
   O     63.48000000    60.12000000    17.36000000
   H     65.25000000    58.96800000    15.49800000
   H     63.86700000    58.79400000    14.39200000
   H     64.43500000    60.41500000    14.85900000
   N     62.25000000    58.62000000    16.27000000
   C     61.06000000    58.90000000    17.04000000
   C     61.19000000    58.48000000    18.50000000
   O     61.43000000    57.30000000    18.74000000
   C     59.85000000    58.34000000    16.31000000
   C     58.47000000    58.41000000    16.96000000
   O     57.54000000    57.74000000    16.46000000
   O     58.30000000    59.09000000    18.00000000
   H     62.13000000    58.19000000    15.36000000
   H     60.96000000    59.99000000    17.12000000
   H     60.11000000    57.29000000    16.18000000
   H     59.90000000    58.80000000    15.33000000
   N     60.83000000    59.43000000    19.37000000
   C     60.93000000    59.44000000    20.82000000
   C     59.72000000    58.90000000    21.56000000
   O     59.72000000    58.85000000    22.79000000
   C     61.52000000    60.72000000    21.41000000
   H     60.45000000    60.27000000    18.96000000
   H     61.70000000    58.69000000    20.99000000
   H     62.34000000    61.10000000    20.80000000
   H     60.80000000    61.53000000    21.41000000
   H     61.91000000    60.57000000    22.42000000
   N     58.71000000    58.37000000    20.87000000
   C     57.57000000    57.68000000    21.44000000
   C     57.15000000    56.47000000    20.62000000
   O     56.58000000    55.49000000    21.09000000
   C     56.42000000    58.65000000    21.66000000
   C     55.95000000    59.32000000    20.38000000
   O     55.06000000    58.73000000    19.74000000
   O     56.37000000    60.48000000    20.14000000
   H     58.78000000    58.58000000    19.88000000
   H     57.87000000    57.33000000    22.43000000
   H     56.77000000    59.42000000    22.35000000
   H     55.57000000    58.12000000    22.09000000
   N     57.51000000    56.46000000    19.33000000
   C     57.27000000    55.39000000    18.38000000
   C     55.93000000    55.37000000    17.66000000
   O     55.49000000    54.39000000    17.06000000
   H     57.64000000    57.38000000    18.93000000
   H     57.40000000    54.41000000    18.83000000
   H     58.08000000    55.39000000    17.65000000
   N     55.02000000    56.29000000    17.98000000
   C     53.75000000    56.30000000    17.29000000
   C     53.82000000    56.90000000    15.89000000
   O     52.80000000    57.32000000    15.34000000
   C     52.64000000    56.93000000    18.13000000
   C     52.49000000    56.33000000    19.52000000
   N     53.03000000    56.97000000    20.55000000
   O     51.80000000    55.33000000    19.70000000
   H     55.25000000    57.08000000    18.57000000
   H     53.40000000    55.29000000    17.09000000
   H     51.70000000    56.75000000    17.60000000
   H     52.88000000    57.98000000    18.28000000
   H     53.59000000    57.81000000    20.45000000
   H     53.11000000    56.33000000    21.33000000
   N     54.98000000    56.93000000    15.23000000
   C     55.21000000    57.23000000    13.83000000
   C     54.85000000    58.58000000    13.22000000
   O     54.62000000    58.67000000    12.02000000
   H     55.81000000    56.56000000    15.67000000
   H     54.76000000    56.43000000    13.24000000
   H     56.26000000    57.11000000    13.58000000
   N     54.84000000    59.64000000    14.04000000
   C     54.72000000    61.02000000    13.63000000
   C     55.84000000    61.89000000    14.20000000
   O     56.25000000    61.70000000    15.34000000
   C     53.39000000    61.74000000    13.78000000
   C     52.13000000    61.24000000    13.08000000
   O     53.10000000    61.72000000    15.16000000
   H     54.97000000    59.46000000    15.03000000
   H     54.86000000    60.96000000    12.55000000
   H     53.46000000    62.82000000    13.63000000
   H     52.43000000    62.39000000    15.36000000
   H     52.23000000    61.38000000    12.01000000
   H     51.97000000    60.21000000    13.40000000
   H     51.33000000    61.84000000    13.50000000
   N     56.37000000    62.81000000    13.39000000
   C     57.46000000    63.71000000    13.73000000
   C     57.00000000    64.97000000    14.44000000
   O     56.40000000    65.86000000    13.83000000
   C     58.33000000    63.90000000    12.50000000
   C     58.84000000    62.63000000    11.82000000
   C     59.55000000    64.81000000    12.60000000
   C     59.75000000    61.83000000    12.74000000
   H     55.98000000    62.85000000    12.46000000
   H     58.15000000    63.20000000    14.40000000
   H     57.66000000    64.41000000    11.80000000
   H     59.47000000    62.92000000    10.98000000
   H     57.97000000    62.08000000    11.46000000
   H     60.25000000    64.66000000    13.42000000
   H     60.07000000    64.78000000    11.64000000
   H     59.27000000    65.86000000    12.66000000
   H     59.17000000    61.51000000    13.60000000
   H     60.07000000    60.95000000    12.18000000
   H     60.60000000    62.46000000    13.01000000
   N     57.47000000    65.15000000    15.67000000
   C     57.48000000    66.36000000    16.47000000
   C     58.68000000    67.18000000    16.01000000
   O     59.62000000    66.66000000    15.41000000
   C     57.56000000    66.15000000    17.98000000
   C     56.64000000    65.04000000    18.46000000
   O     57.06000000    63.86000000    18.49000000
   O     55.52000000    65.44000000    18.84000000
   H     58.00000000    64.40000000    16.10000000
   H     56.53000000    66.85000000    16.28000000
   H     57.20000000    67.10000000    18.37000000
   H     58.57000000    66.01000000    18.37000000
   N     58.74000000    68.47000000    16.35000000
   C     59.83000000    69.36000000    16.00000000
   C     61.17000000    68.96000000    16.60000000
   O     62.17000000    69.19000000    15.92000000
   C     59.55000000    70.82000000    16.36000000
   C     60.43000000    71.76000000    15.57000000
   C     60.34000000    71.82000000    14.18000000
   C     61.26000000    72.65000000    16.27000000
   C     61.22000000    72.66000000    13.49000000
   C     62.06000000    73.57000000    15.58000000
   C     62.06000000    73.54000000    14.18000000
   H     57.91000000    68.96000000    16.64000000
   H     59.94000000    69.38000000    14.92000000
   H     59.69000000    70.95000000    17.44000000
   H     58.50000000    71.10000000    16.34000000
   H     59.64000000    71.19000000    13.65000000
   H     61.31000000    72.51000000    17.34000000
   H     61.20000000    72.63000000    12.41000000
   H     62.72000000    74.26000000    16.07000000
   H     62.67000000    74.26000000    13.66000000
   N     61.24000000    68.50000000    17.85000000
   C     62.56000000    68.19000000    18.38000000
   C     63.20000000    67.05000000    17.60000000
   O     64.39000000    67.03000000    17.31000000
   C     62.44000000    67.98000000    19.89000000
   C     61.03000000    68.46000000    20.22000000
   C     60.25000000    68.40000000    18.91000000
   H     63.13000000    69.11000000    18.24000000
   H     62.52000000    66.90000000    20.02000000
   H     63.23000000    68.39000000    20.51000000
   H     60.51000000    67.85000000    20.96000000
   H     61.24000000    69.49000000    20.51000000
   H     59.75000000    67.44000000    18.80000000
   H     59.43000000    69.12000000    18.83000000
   N     62.36000000    66.12000000    17.15000000
   C     62.61000000    64.97000000    16.29000000
   C     62.76000000    65.29000000    14.81000000
   O     63.55000000    64.62000000    14.15000000
   C     61.47000000    63.96000000    16.34000000
   C     61.06000000    63.42000000    17.71000000
   C     59.85000000    62.51000000    17.66000000
   O     58.98000000    62.64000000    16.76000000
   O     59.52000000    61.84000000    18.66000000
   H     61.42000000    66.21000000    17.52000000
   H     63.43000000    64.34000000    16.63000000
   H     61.73000000    63.17000000    15.63000000
   H     60.59000000    64.44000000    15.91000000
   H     60.85000000    64.24000000    18.39000000
   H     61.90000000    62.89000000    18.15000000
   N     62.25000000    66.44000000    14.36000000
   C     62.52000000    67.23000000    13.18000000
   H     63.55400000    67.07900000    12.87100000
   H     61.85200000    66.92200000    12.37500000
   H     62.35900000    68.28500000    13.40300000
   H     61.54000000    66.87000000    14.94000000
  Ca     56.96000000    61.51000000    17.87000000
   O     55.58000000    59.38000000    17.16000000
   H     56.14000000    58.65000000    16.89000000
   H     55.12000000    59.07000000    17.93000000
   O     54.69000000    62.71000000    18.47000000
   H     55.16000000    63.50000000    18.76000000
   H     53.81000000    62.82000000    18.85000000

Ca 1.00



