%chk=loop3.holoCaM-CaMKII.run100.water2.chk
%nprocshared=20
%mem=10GB
%nosave
#b3lyp/svp scf=(tight,noincore,xqc) Test 
#IOP(5/87=12) Density=Current Pop=(MK,readradii) iop(6/33=2) iop(6/42=6)

loop3.holoCaM-CaMKII.run100.water2 

   0  1 
   C     46.39000000    24.23000000    -4.08900000
   C     45.29000000    24.72000000    -3.14900000
   O     45.32000000    24.36000000    -1.97900000
   H     47.29700000    24.03800000    -3.51600000
   H     46.06800000    23.31100000    -4.57800000
   H     46.59100000    24.99200000    -4.84200000
   N     44.28000000    25.44000000    -3.65900000
   C     43.25000000    26.16000000    -2.93900000
   C     42.01000000    25.37000000    -2.53900000
   O     41.14000000    25.25000000    -3.39900000
   C     42.92000000    27.50000000    -3.60900000
   C     41.86000000    28.23000000    -2.80900000
   O     41.41000000    29.33000000    -3.22900000
   O     41.74000000    27.97000000    -1.58900000
   H     44.20000000    25.55000000    -4.65900000
   H     43.73000000    26.38000000    -1.98900000
   H     42.61000000    27.36000000    -4.64900000
   H     43.81000000    28.10000000    -3.79900000
   N     41.88000000    24.88000000    -1.30900000
   C     40.86000000    23.94000000    -0.87900000
   C     39.61000000    24.52000000    -0.23900000
   O     38.59000000    23.84000000    -0.17900000
   C     41.49000000    22.89000000     0.03100000
   C     42.50000000    21.96000000    -0.64900000
   C     42.04000000    20.97000000    -1.71900000
   C     43.10000000    19.90000000    -1.92900000
   N     44.40000000    20.42000000    -2.38900000
   H     42.54000000    25.17000000    -0.59900000
   H     40.38000000    23.42000000    -1.70900000
   H     40.73000000    22.21000000     0.41100000
   H     42.04000000    23.38000000     0.84100000
   H     42.90000000    21.29000000     0.10100000
   H     43.32000000    22.61000000    -0.96900000
   H     41.84000000    21.57000000    -2.59900000
   H     41.18000000    20.45000000    -1.28900000
   H     42.62000000    19.33000000    -2.71900000
   H     43.12000000    19.20000000    -1.08900000
   H     45.06000000    19.72000000    -2.71900000
   H     44.22000000    21.05000000    -3.14900000
   H     44.92000000    20.89000000    -1.65900000
   N     39.57000000    25.79000000     0.16100000
   C     38.38000000    26.49000000     0.62100000
   C     37.88000000    27.44000000    -0.45900000
   O     36.91000000    28.16000000    -0.27900000
   C     38.53000000    27.17000000     1.97100000
   C     39.83000000    27.91000000     2.27100000
   O     39.96000000    28.44000000     3.40100000
   O     40.67000000    27.93000000     1.35100000
   H     40.44000000    26.30000000     0.12100000
   H     37.54000000    25.81000000     0.73100000
   H     38.37000000    26.39000000     2.71100000
   H     37.78000000    27.96000000     2.00100000
   N     38.63000000    27.58000000    -1.55900000
   C     38.25000000    28.26000000    -2.77900000
   C     38.31000000    29.77000000    -2.55900000
   O     37.67000000    30.56000000    -3.24900000
   H     39.45000000    26.98000000    -1.52900000
   H     37.23000000    28.03000000    -3.05900000
   H     39.00000000    28.02000000    -3.53900000
   N     39.02000000    30.24000000    -1.52900000
   C     39.10000000    31.62000000    -1.11900000
   C     40.11000000    32.51000000    -1.82900000
   O     40.29000000    33.68000000    -1.50900000
   C     39.28000000    31.63000000     0.40100000
   C     40.70000000    31.47000000     0.93100000
   N     40.99000000    32.07000000     2.09100000
   O     41.58000000    30.78000000     0.44100000
   H     39.60000000    29.64000000    -0.95900000
   H     38.10000000    32.01000000    -1.31900000
   H     38.69000000    30.84000000     0.86100000
   H     38.98000000    32.62000000     0.73100000
   H     40.31000000    32.61000000     2.60100000
   H     41.84000000    31.80000000     2.56100000
   N     40.79000000    31.91000000    -2.80900000
   C     41.68000000    32.57000000    -3.73900000
   C     43.11000000    32.75000000    -3.23900000
   O     43.83000000    33.57000000    -3.80900000
   H     40.67000000    30.93000000    -3.00900000
   H     41.40000000    33.61000000    -3.91900000
   H     41.59000000    32.04000000    -4.68900000
   N     43.51000000    32.13000000    -2.12900000
   C     44.87000000    32.19000000    -1.64900000
   C     45.37000000    30.79000000    -1.27900000
   O     44.59000000    29.84000000    -1.25900000
   C     44.95000000    33.04000000    -0.38900000
   C     44.41000000    34.45000000    -0.46900000
   C     45.19000000    35.48000000    -1.00900000
   C     43.06000000    34.68000000    -0.15900000
   C     44.64000000    36.75000000    -1.23900000
   C     42.47000000    35.91000000    -0.44900000
   C     43.26000000    36.93000000    -1.03900000
   O     42.68000000    38.13000000    -1.30900000
   H     42.84000000    31.51000000    -1.69900000
   H     45.52000000    32.65000000    -2.38900000
   H     45.99000000    33.10000000    -0.06900000
   H     44.36000000    32.51000000     0.36100000
   H     46.25000000    35.45000000    -1.19900000
   H     42.47000000    33.89000000     0.27100000
   H     45.19000000    37.55000000    -1.71900000
   H     41.42000000    36.14000000    -0.37900000
   H     43.23000000    38.74000000    -1.78900000
   N     46.69000000    30.65000000    -1.18900000
   C     47.34000000    29.43000000    -0.72900000
   C     47.95000000    29.74000000     0.63100000
   O     48.50000000    30.82000000     0.81100000
   C     48.38000000    28.94000000    -1.71900000
   C     48.05000000    28.70000000    -3.18900000
   C     49.05000000    27.69000000    -1.14900000
   C     49.24000000    28.39000000    -4.08900000
   H     47.27000000    31.40000000    -1.52900000
   H     46.63000000    28.62000000    -0.56900000
   H     49.19000000    29.67000000    -1.78900000
   H     47.55000000    29.59000000    -3.58900000
   H     47.25000000    27.98000000    -3.36900000
   H     49.60000000    27.92000000    -0.23900000
   H     48.50000000    26.75000000    -1.05900000
   H     49.88000000    27.51000000    -1.81900000
   H     49.53000000    27.36000000    -3.89900000
   H     48.90000000    28.56000000    -5.10900000
   H     50.11000000    29.01000000    -3.86900000
   N     47.91000000    28.78000000     1.56100000
   C     48.53000000    28.83000000     2.87100000
   C     49.45000000    27.64000000     3.12100000
   O     49.42000000    26.68000000     2.35100000
   C     47.47000000    29.02000000     3.96100000
   O     46.67000000    30.16000000     3.74100000
   H     47.35000000    27.96000000     1.38100000
   H     49.15000000    29.72000000     2.91100000
   H     48.03000000    29.16000000     4.88100000
   H     46.79000000    28.17000000     4.02100000
   H     46.76000000    30.68000000     4.53100000
   N     50.26000000    27.67000000     4.17100000
   C     51.42000000    26.80000000     4.23100000
   C     51.00000000    25.37000000     4.51100000
   O     51.65000000    24.42000000     4.07100000
   C     52.40000000    27.37000000     5.26100000
   H     50.17000000    28.37000000     4.90100000
   H     51.90000000    26.85000000     3.26100000
   H     52.48000000    28.44000000     5.07100000
   H     52.12000000    27.18000000     6.30100000
   H     53.37000000    26.89000000     5.14100000
   N     49.85000000    25.14000000     5.16100000
   C     49.20000000    23.86000000     5.28100000
   C     48.67000000    23.33000000     3.95100000
   O     48.60000000    22.11000000     3.80100000
   C     48.06000000    23.97000000     6.29100000
   H     49.39000000    25.89000000     5.66100000
   H     49.90000000    23.13000000     5.69100000
   H     47.37000000    24.79000000     6.10100000
   H     47.47000000    23.05000000     6.38100000
   H     48.62000000    24.04000000     7.22100000
   N     48.25000000    24.09000000     2.93100000
   C     47.83000000    23.68000000     1.61100000
   C     48.92000000    23.36000000     0.59100000
   O     48.85000000    22.37000000    -0.13900000
   C     46.94000000    24.76000000     1.00100000
   C     45.67000000    25.12000000     1.78100000
   C     44.83000000    26.18000000     1.07100000
   O     43.65000000    25.98000000     0.72100000
   O     45.33000000    27.30000000     0.84100000
   H     48.23000000    25.06000000     3.20100000
   H     47.35000000    22.71000000     1.64100000
   H     46.69000000    24.40000000     0.01100000
   H     47.55000000    25.66000000     0.97100000
   H     46.00000000    25.46000000     2.77100000
   H     45.17000000    24.17000000     1.94100000
   N     50.00000000    24.14000000     0.70100000
   C     51.26000000    23.88000000     0.03100000
   H     52.04000000    23.72000000     0.77500000
   H     51.16500000    22.99000000    -0.59100000
   H     51.52300000    24.73400000    -0.59300000
   H     49.97000000    24.99000000     1.24100000
  Ca     43.02000000    28.56000000     0.55000000
   O     43.04000000    28.34000000     3.24000000
   H     42.44000000    28.64000000     3.93000000
   H     43.67000000    27.78000000     3.70000000
   O     44.61000000    30.16000000     1.80000000
   H     45.19000000    29.81000000     2.48000000
   H     44.34000000    31.02000000     2.14000000

Ca 1.00



