%chk=loop4.apoCaM-CA-Ng.Init295.run1.water4.chk
%nprocshared=20
%mem=10GB
%nosave
#b3lyp/svp scf=(tight,noincore,xqc) Test 
#IOP(5/87=12) Density=Current Pop=(MK,readradii) iop(6/33=2) iop(6/42=6)

loop4.apoCaM-CA-Ng.Init295.run1.water4 

   -3  1 
   C     48.20000000    27.46000000    41.33000000
   C     48.02000000    26.67000000    42.62000000
   O     48.27000000    27.21000000    43.69000000
   H     49.25000000    27.44100000    41.03600000
   H     47.59500000    27.01200000    40.54200000
   H     47.88600000    28.49200000    41.48800000
   N     47.65000000    25.38000000    42.58000000
   C     47.70000000    24.54000000    43.76000000
   C     47.01000000    25.04000000    45.03000000
   O     47.47000000    24.74000000    46.13000000
   C     49.13000000    24.14000000    44.09000000
   C     50.01000000    23.91000000    42.87000000
   O     51.21000000    24.26000000    42.88000000
   O     49.64000000    23.27000000    41.86000000
   H     47.63000000    24.99000000    41.65000000
   H     47.18000000    23.61000000    43.52000000
   H     49.23000000    23.19000000    44.62000000
   H     49.67000000    24.85000000    44.72000000
   N     45.91000000    25.79000000    44.93000000
   C     45.10000000    26.35000000    46.00000000
   C     44.62000000    25.26000000    46.95000000
   O     44.07000000    24.25000000    46.51000000
   C     43.97000000    27.21000000    45.45000000
   C     44.47000000    28.35000000    44.57000000
   C     43.20000000    27.71000000    46.67000000
   C     43.44000000    29.25000000    43.90000000
   H     45.66000000    25.92000000    43.97000000
   H     45.79000000    27.07000000    46.45000000
   H     43.41000000    26.56000000    44.78000000
   H     45.09000000    27.86000000    43.82000000
   H     45.16000000    28.98000000    45.13000000
   H     42.80000000    26.82000000    47.16000000
   H     43.75000000    28.36000000    47.35000000
   H     42.29000000    28.28000000    46.48000000
   H     42.89000000    28.82000000    43.06000000
   H     42.64000000    29.51000000    44.59000000
   H     43.87000000    30.21000000    43.63000000
   N     44.75000000    25.45000000    48.26000000
   C     45.41000000    26.49000000    49.04000000
   C     46.65000000    25.98000000    49.75000000
   O     47.54000000    26.79000000    49.99000000
   C     44.51000000    27.04000000    50.14000000
   C     43.83000000    26.02000000    51.03000000
   O     43.40000000    26.38000000    52.15000000
   O     43.49000000    24.87000000    50.67000000
   H     44.15000000    24.91000000    48.86000000
   H     45.75000000    27.27000000    48.35000000
   H     43.72000000    27.58000000    49.61000000
   H     45.14000000    27.69000000    50.75000000
   N     46.72000000    24.68000000    50.05000000
   C     47.78000000    24.08000000    50.83000000
   C     47.77000000    24.73000000    52.21000000
   O     46.72000000    25.18000000    52.66000000
   H     45.86000000    24.15000000    49.99000000
   H     48.73000000    24.26000000    50.34000000
   H     47.73000000    23.00000000    50.92000000
   N     48.96000000    24.87000000    52.81000000
   C     49.19000000    25.55000000    54.07000000
   C     49.10000000    27.07000000    54.04000000
   O     49.20000000    27.72000000    55.08000000
   C     50.54000000    25.19000000    54.69000000
   C     51.66000000    25.30000000    53.66000000
   O     51.58000000    26.07000000    52.68000000
   O     52.65000000    24.55000000    53.79000000
   H     49.70000000    24.33000000    52.40000000
   H     48.36000000    25.27000000    54.71000000
   H     50.48000000    24.18000000    55.09000000
   H     50.78000000    25.74000000    55.60000000
   N     48.99000000    27.72000000    52.88000000
   C     48.66000000    29.10000000    52.63000000
   C     49.74000000    30.14000000    52.90000000
   O     49.53000000    31.35000000    52.88000000
   H     49.07000000    27.08000000    52.10000000
   H     47.76000000    29.39000000    53.17000000
   H     48.47000000    29.28000000    51.57000000
   N     50.95000000    29.71000000    53.28000000
   C     52.09000000    30.56000000    53.52000000
   C     52.69000000    31.37000000    52.38000000
   O     53.59000000    32.20000000    52.52000000
   C     51.95000000    31.41000000    54.79000000
   C     51.72000000    30.55000000    56.02000000
   C     51.20000000    31.36000000    57.20000000
   N     50.56000000    30.72000000    58.17000000
   O     51.28000000    32.59000000    57.29000000
   H     51.03000000    28.70000000    53.30000000
   H     52.93000000    29.90000000    53.71000000
   H     51.07000000    32.05000000    54.69000000
   H     52.83000000    32.03000000    54.97000000
   H     52.66000000    30.07000000    56.27000000
   H     51.00000000    29.74000000    55.86000000
   H     50.67000000    29.71000000    58.15000000
   H     50.16000000    31.33000000    58.87000000
   N     52.25000000    31.04000000    51.17000000
   C     52.62000000    31.59000000    49.88000000
   C     53.98000000    31.09000000    49.41000000
   O     54.14000000    30.41000000    48.40000000
   C     51.56000000    31.40000000    48.81000000
   C     50.16000000    31.71000000    49.34000000
   C     51.68000000    32.32000000    47.60000000
   H     51.73000000    30.17000000    51.14000000
   H     52.76000000    32.66000000    50.04000000
   H     51.58000000    30.37000000    48.45000000
   H     49.45000000    31.28000000    48.63000000
   H     49.91000000    31.32000000    50.32000000
   H     49.93000000    32.78000000    49.28000000
   H     50.83000000    32.15000000    46.94000000
   H     51.83000000    33.38000000    47.81000000
   H     52.54000000    32.04000000    47.00000000
   N     55.03000000    31.38000000    50.19000000
   C     56.41000000    31.23000000    49.81000000
   C     56.83000000    31.84000000    48.48000000
   O     56.39000000    32.94000000    48.12000000
   C     57.27000000    31.65000000    51.00000000
   C     58.76000000    31.64000000    50.67000000
   N     59.46000000    30.53000000    50.85000000
   O     59.26000000    32.61000000    50.11000000
   H     54.80000000    32.06000000    50.90000000
   H     56.62000000    30.17000000    49.73000000
   H     57.02000000    30.97000000    51.81000000
   H     57.01000000    32.66000000    51.32000000
   H     58.95000000    29.67000000    50.98000000
   H     60.44000000    30.60000000    50.59000000
   N     57.66000000    31.07000000    47.77000000
   C     58.14000000    31.52000000    46.48000000
   C     58.35000000    30.27000000    45.65000000
   O     59.47000000    30.06000000    45.19000000
   C     59.38000000    32.39000000    46.71000000
   C     59.86000000    33.21000000    45.54000000
   C     59.21000000    33.28000000    44.31000000
   C     61.01000000    34.00000000    45.73000000
   C     59.75000000    34.04000000    43.26000000
   C     61.62000000    34.71000000    44.69000000
   C     60.92000000    34.80000000    43.47000000
   O     61.39000000    35.56000000    42.44000000
   H     57.89000000    30.14000000    48.09000000
   H     57.38000000    32.11000000    45.96000000
   H     60.21000000    31.79000000    47.09000000
   H     59.05000000    33.12000000    47.45000000
   H     58.34000000    32.68000000    44.10000000
   H     61.47000000    33.96000000    46.71000000
   H     59.30000000    34.14000000    42.29000000
   H     62.57000000    35.17000000    44.92000000
   H     62.20000000    36.03000000    42.64000000
   N     57.37000000    29.36000000    45.61000000
   C     57.54000000    27.95000000    45.35000000
   C     57.66000000    27.61000000    43.87000000
   O     58.51000000    26.78000000    43.55000000
   C     56.36000000    27.21000000    45.98000000
   C     56.36000000    25.69000000    45.88000000
   C     57.38000000    24.93000000    46.72000000
   O     57.00000000    23.99000000    47.44000000
   O     58.59000000    25.17000000    46.54000000
   H     56.54000000    29.63000000    46.12000000
   H     58.43000000    27.52000000    45.79000000
   H     55.36000000    27.54000000    45.71000000
   H     56.43000000    27.53000000    47.02000000
   H     56.62000000    25.50000000    44.84000000
   H     55.37000000    25.25000000    46.03000000
   N     56.88000000    28.17000000    42.94000000
   C     55.59000000    28.83000000    43.01000000
   C     55.49000000    30.05000000    42.11000000
   O     56.36000000    30.34000000    41.29000000
   C     54.54000000    27.79000000    42.62000000
   C     54.72000000    27.10000000    41.28000000
   C     53.62000000    26.06000000    41.13000000
   O     52.42000000    26.38000000    40.98000000
   O     53.91000000    24.85000000    41.24000000
   H     57.12000000    27.97000000    41.98000000
   H     55.40000000    29.14000000    44.04000000
   H     53.56000000    28.28000000    42.67000000
   H     54.54000000    27.02000000    43.39000000
   H     55.67000000    26.58000000    41.32000000
   H     54.87000000    27.81000000    40.46000000
   N     54.32000000    30.68000000    42.11000000
   C     53.93000000    31.69000000    41.16000000
   H     53.04900000    32.21500000    41.53000000
   H     54.74700000    32.40000000    41.02800000
   H     53.69800000    31.22000000    40.20400000
   H     53.60000000    30.51000000    42.80000000
  Ca     51.69000000    23.90000000    40.37000000
   O     52.49000000    25.55000000    38.20000000
   H     52.87000000    25.33000000    37.35000000
   H     52.70000000    26.48000000    38.33000000
   O     52.03000000    21.58000000    41.56000000
   H     51.90000000    21.28000000    42.46000000
   H     52.64000000    20.95000000    41.18000000
   O     50.59000000    21.88000000    39.02000000
   H     49.78000000    21.97000000    38.51000000
   H     50.58000000    20.97000000    39.31000000
   O     53.63000000    22.86000000    38.94000000
   H     53.52000000    22.27000000    38.18000000
   H     54.57000000    22.96000000    39.03000000

Ca 1.00



