%chk=loop4.holoCaM.run34.water1.chk
%nprocshared=20
%mem=10GB
%nosave
#b3lyp/svp scf=(tight,noincore,xqc) Test 
#IOP(5/87=12) Density=Current Pop=(MK,readradii) iop(6/33=2) iop(6/42=6)

loop4.holoCaM.run34.water1 

   -3  1 
   C     88.49000000    56.03000000    -9.15000000
   C     88.71000000    57.51000000    -9.46000000
   O     87.84000000    58.36000000    -9.36000000
   H     87.52400000    55.71600000    -9.54500000
   H     89.28100000    55.44000000    -9.61300000
   H     88.50700000    55.87800000    -8.07100000
   N     89.98000000    57.83000000    -9.75000000
   C     90.40000000    59.19000000   -10.02000000
   C     89.74000000    59.83000000   -11.24000000
   O     89.84000000    59.29000000   -12.34000000
   C     91.91000000    59.26000000   -10.17000000
   C     92.52000000    60.62000000   -10.51000000
   O     93.67000000    60.53000000   -11.00000000
   O     91.91000000    61.69000000   -10.32000000
   H     90.67000000    57.10000000    -9.82000000
   H     90.09000000    59.77000000    -9.16000000
   H     92.27000000    58.60000000   -10.96000000
   H     92.40000000    59.02000000    -9.22000000
   N     89.21000000    61.02000000   -10.97000000
   C     88.47000000    61.80000000   -11.95000000
   C     89.30000000    62.89000000   -12.61000000
   O     88.69000000    63.54000000   -13.45000000
   C     87.15000000    62.34000000   -11.42000000
   C     87.48000000    63.34000000   -10.32000000
   C     86.20000000    61.29000000   -10.84000000
   C     86.26000000    64.17000000    -9.95000000
   H     89.17000000    61.25000000    -9.99000000
   H     88.16000000    61.15000000   -12.77000000
   H     86.75000000    62.85000000   -12.29000000
   H     88.22000000    64.05000000   -10.70000000
   H     87.65000000    62.86000000    -9.36000000
   H     86.55000000    60.75000000    -9.96000000
   H     85.27000000    61.82000000   -10.63000000
   H     86.03000000    60.59000000   -11.66000000
   H     85.82000000    64.63000000   -10.83000000
   H     85.48000000    63.72000000    -9.33000000
   H     86.63000000    65.00000000    -9.34000000
   N     90.57000000    63.13000000   -12.27000000
   C     91.39000000    64.18000000   -12.84000000
   C     92.62000000    63.69000000   -13.58000000
   O     93.04000000    64.26000000   -14.59000000
   C     91.96000000    64.99000000   -11.68000000
   C     90.96000000    65.44000000   -10.63000000
   O     90.20000000    66.36000000   -11.01000000
   O     90.88000000    64.76000000    -9.59000000
   H     91.01000000    62.41000000   -11.71000000
   H     90.89000000    64.75000000   -13.63000000
   H     92.37000000    65.91000000   -12.12000000
   H     92.74000000    64.40000000   -11.21000000
   N     93.15000000    62.52000000   -13.21000000
   C     94.36000000    61.98000000   -13.79000000
   C     95.59000000    62.44000000   -13.03000000
   O     96.68000000    62.40000000   -13.60000000
   H     92.69000000    61.92000000   -12.53000000
   H     94.40000000    62.20000000   -14.86000000
   H     94.25000000    60.90000000   -13.77000000
   N     95.42000000    62.86000000   -11.77000000
   C     96.48000000    63.06000000   -10.81000000
   C     96.93000000    61.82000000   -10.05000000
   O     97.93000000    61.94000000    -9.34000000
   C     96.07000000    64.18000000    -9.85000000
   C     94.80000000    63.90000000    -9.07000000
   O     94.47000000    62.76000000    -8.65000000
   O     93.97000000    64.82000000    -8.88000000
   H     94.48000000    62.68000000   -11.44000000
   H     97.35000000    63.42000000   -11.35000000
   H     95.90000000    65.10000000   -10.40000000
   H     96.95000000    64.47000000    -9.27000000
   N     96.22000000    60.71000000   -10.18000000
   C     96.56000000    59.40000000    -9.64000000
   C     96.27000000    59.30000000    -8.15000000
   O     96.96000000    58.60000000    -7.42000000
   H     95.36000000    60.79000000   -10.70000000
   H     97.63000000    59.23000000    -9.79000000
   H     95.91000000    58.66000000   -10.11000000
   N     95.35000000    60.09000000    -7.59000000
   C     95.05000000    60.22000000    -6.18000000
   C     93.62000000    60.66000000    -5.92000000
   O     92.92000000    61.32000000    -6.68000000
   C     96.17000000    61.00000000    -5.50000000
   C     96.28000000    62.48000000    -5.84000000
   C     97.27000000    63.19000000    -4.93000000
   N     97.39000000    64.51000000    -5.12000000
   O     97.97000000    62.58000000    -4.13000000
   H     94.86000000    60.66000000    -8.28000000
   H     95.16000000    59.22000000    -5.75000000
   H     97.17000000    60.62000000    -5.71000000
   H     96.05000000    60.98000000    -4.41000000
   H     95.33000000    63.00000000    -5.74000000
   H     96.62000000    62.47000000    -6.88000000
   H     96.61000000    65.03000000    -5.50000000
   H     98.20000000    64.87000000    -4.64000000
   N     93.12000000    60.34000000    -4.72000000
   C     91.73000000    60.47000000    -4.36000000
   C     91.50000000    61.46000000    -3.23000000
   O     91.96000000    61.28000000    -2.11000000
   C     90.91000000    59.20000000    -4.14000000
   C     90.50000000    58.50000000    -5.44000000
   C     91.52000000    58.22000000    -3.14000000
   H     93.64000000    59.60000000    -4.27000000
   H     91.21000000    60.93000000    -5.21000000
   H     89.99000000    59.54000000    -3.66000000
   H     91.38000000    58.12000000    -5.97000000
   H     89.94000000    57.60000000    -5.23000000
   H     89.99000000    59.16000000    -6.14000000
   H     90.87000000    57.35000000    -3.03000000
   H     92.52000000    57.94000000    -3.47000000
   H     91.46000000    58.63000000    -2.13000000
   N     90.77000000    62.55000000    -3.53000000
   C     90.24000000    63.47000000    -2.54000000
   C     89.00000000    62.93000000    -1.84000000
   O     88.42000000    61.91000000    -2.20000000
   C     90.15000000    64.88000000    -3.11000000
   C     88.70000000    65.20000000    -3.47000000
   N     88.17000000    64.58000000    -4.52000000
   O     88.03000000    65.96000000    -2.77000000
   H     90.48000000    62.58000000    -4.49000000
   H     90.96000000    63.61000000    -1.73000000
   H     90.73000000    64.98000000    -4.03000000
   H     90.58000000    65.68000000    -2.51000000
   H     88.75000000    63.97000000    -5.07000000
   H     87.34000000    65.04000000    -4.88000000
   N     88.40000000    63.71000000    -0.93000000
   C     87.17000000    63.44000000    -0.22000000
   C     85.90000000    63.38000000    -1.05000000
   O     85.15000000    62.41000000    -0.93000000
   C     86.93000000    64.52000000     0.84000000
   C     85.89000000    64.06000000     1.83000000
   C     86.28000000    63.22000000     2.88000000
   C     84.62000000    64.64000000     1.82000000
   C     85.40000000    62.75000000     3.87000000
   C     83.73000000    64.26000000     2.83000000
   C     84.11000000    63.31000000     3.80000000
   O     83.21000000    62.88000000     4.73000000
   H     88.85000000    64.60000000    -0.82000000
   H     87.33000000    62.44000000     0.19000000
   H     86.63000000    65.40000000     0.27000000
   H     87.88000000    64.76000000     1.32000000
   H     87.32000000    62.94000000     2.95000000
   H     84.22000000    65.32000000     1.07000000
   H     85.75000000    62.10000000     4.65000000
   H     82.81000000    64.83000000     2.80000000
   H     82.35000000    63.25000000     4.52000000
   N     85.72000000    64.25000000    -2.05000000
   C     84.67000000    64.08000000    -3.03000000
   C     84.87000000    62.91000000    -3.98000000
   O     83.92000000    62.53000000    -4.67000000
   C     84.54000000    65.38000000    -3.82000000
   C     83.99000000    66.51000000    -2.96000000
   C     83.87000000    67.86000000    -3.65000000
   O     84.83000000    68.66000000    -3.76000000
   O     82.81000000    68.08000000    -4.29000000
   H     86.25000000    65.11000000    -2.07000000
   H     83.74000000    63.85000000    -2.50000000
   H     83.92000000    65.12000000    -4.68000000
   H     85.50000000    65.62000000    -4.28000000
   H     84.75000000    66.68000000    -2.19000000
   H     83.04000000    66.23000000    -2.53000000
   N     86.04000000    62.28000000    -4.08000000
   C     86.27000000    61.07000000    -4.84000000
   C     85.98000000    59.87000000    -3.94000000
   O     85.46000000    58.84000000    -4.36000000
   C     87.72000000    61.09000000    -5.31000000
   C     87.75000000    61.75000000    -6.69000000
   C     89.10000000    62.33000000    -7.06000000
   O     89.79000000    63.03000000    -6.29000000
   O     89.74000000    61.87000000    -8.03000000
   H     86.79000000    62.65000000    -3.52000000
   H     85.54000000    60.91000000    -5.64000000
   H     88.00000000    60.05000000    -5.49000000
   H     88.46000000    61.56000000    -4.67000000
   H     87.03000000    62.58000000    -6.71000000
   H     87.46000000    61.00000000    -7.42000000
   N     86.35000000    59.93000000    -2.66000000
   C     86.38000000    58.83000000    -1.71000000
   H     86.44600000    59.22700000    -0.69700000
   H     85.47000000    58.23900000    -1.80900000
   H     87.24700000    58.20000000    -1.91000000
   H     86.67000000    60.80000000    -2.26000000
  Ca     91.90000000    63.25000000    -8.04600000
   O     92.97000000    64.45000000    -5.97600000
   H     93.84000000    64.85000000    -5.92600000
   H     92.40000000    65.07000000    -5.52600000

Ca 1.00



