%chk=loop2.apoCaM-CA-Ng.Init31.run81.water6.chk
%nprocshared=20
%mem=10GB
%nosave
#b3lyp/svp scf=(tight,noincore,xqc) Test 
#IOP(5/87=12) Density=Current Pop=(MK,readradii) iop(6/33=2) iop(6/42=6)

loop2.apoCaM-CA-Ng.Init31.run81.water6 

   -2  1 
   C     73.27000000    55.46000000     2.84000000
   C     72.39000000    54.26000000     2.54000000
   O     71.19000000    54.35000000     2.29000000
   H     74.19400000    55.38400000     2.26700000
   H     72.74500000    56.37400000     2.56300000
   H     73.50400000    55.48300000     3.90400000
   N     72.99000000    53.06000000     2.55000000
   C     74.39000000    52.74000000     2.41000000
   C     74.88000000    51.50000000     3.16000000
   O     74.13000000    50.54000000     3.30000000
   C     74.70000000    52.70000000     0.92000000
   C     73.72000000    51.91000000     0.06000000
   O     73.18000000    52.49000000    -0.91000000
   O     73.51000000    50.70000000     0.26000000
   H     72.39000000    52.25000000     2.56000000
   H     75.05000000    53.50000000     2.85000000
   H     75.69000000    52.27000000     0.76000000
   H     74.98000000    53.71000000     0.60000000
   N     76.12000000    51.46000000     3.64000000
   C     76.66000000    50.23000000     4.21000000
   C     75.89000000    49.90000000     5.48000000
   O     75.93000000    50.72000000     6.39000000
   C     78.15000000    50.43000000     4.43000000
   H     76.63000000    52.31000000     3.46000000
   H     76.58000000    49.40000000     3.51000000
   H     78.53000000    49.63000000     5.08000000
   H     78.80000000    50.31000000     3.56000000
   H     78.37000000    51.31000000     5.04000000
   N     75.26000000    48.72000000     5.51000000
   C     74.49000000    48.21000000     6.62000000
   C     74.57000000    46.69000000     6.60000000
   O     74.93000000    46.03000000     5.63000000
   C     73.10000000    48.84000000     6.68000000
   C     72.28000000    48.92000000     5.40000000
   O     72.54000000    48.24000000     4.38000000
   O     71.20000000    49.55000000     5.36000000
   H     75.15000000    48.22000000     4.64000000
   H     74.91000000    48.44000000     7.60000000
   H     73.26000000    49.90000000     6.89000000
   H     72.56000000    48.27000000     7.43000000
   N     74.22000000    46.10000000     7.74000000
   C     73.94000000    44.69000000     7.91000000
   C     72.50000000    44.35000000     7.56000000
   O     71.61000000    45.17000000     7.75000000
   H     73.92000000    46.70000000     8.50000000
   H     74.04000000    44.42000000     8.96000000
   H     74.64000000    44.13000000     7.30000000
   N     72.31000000    43.11000000     7.09000000
   C     71.03000000    42.64000000     6.58000000
   C     70.69000000    41.19000000     6.86000000
   O     71.49000000    40.28000000     6.64000000
   C     71.01000000    43.03000000     5.10000000
   C     71.03000000    44.50000000     4.72000000
   N     72.17000000    45.15000000     4.49000000
   O     69.98000000    45.09000000     4.47000000
   H     73.16000000    42.59000000     6.95000000
   H     70.16000000    43.18000000     6.96000000
   H     70.11000000    42.59000000     4.67000000
   H     71.89000000    42.56000000     4.65000000
   H     73.07000000    44.70000000     4.62000000
   H     72.06000000    46.15000000     4.43000000
   N     69.48000000    40.84000000     7.31000000
   C     69.02000000    39.48000000     7.53000000
   C     69.36000000    38.67000000     8.77000000
   O     70.19000000    37.77000000     8.79000000
   H     68.79000000    41.55000000     7.49000000
   H     69.43000000    38.90000000     6.70000000
   H     67.95000000    39.52000000     7.34000000
   N     68.78000000    38.92000000     9.95000000
   C     67.89000000    39.99000000    10.33000000
   C     68.43000000    41.03000000    11.30000000
   O     67.63000000    41.89000000    11.69000000
   C     66.59000000    39.42000000    10.91000000
   C     65.88000000    38.41000000    10.03000000
   O     66.80000000    38.65000000    12.07000000
   H     69.12000000    38.25000000    10.63000000
   H     67.62000000    40.59000000     9.46000000
   H     65.88000000    40.21000000    11.17000000
   H     66.50000000    39.17000000    12.82000000
   H     65.67000000    38.86000000     9.06000000
   H     66.49000000    37.50000000    10.03000000
   H     64.88000000    38.21000000    10.43000000
   N     69.70000000    40.96000000    11.69000000
   C     70.37000000    41.84000000    12.63000000
   C     69.47000000    42.21000000    13.79000000
   O     68.78000000    43.23000000    13.81000000
   C     71.07000000    43.05000000    12.01000000
   C     71.78000000    43.00000000    10.66000000
   C     72.02000000    43.64000000    13.04000000
   C     72.74000000    41.87000000    10.32000000
   H     70.18000000    40.15000000    11.34000000
   H     71.20000000    41.24000000    13.01000000
   H     70.34000000    43.83000000    11.80000000
   H     72.37000000    43.90000000    10.49000000
   H     71.10000000    43.09000000     9.82000000
   H     72.49000000    44.55000000    12.67000000
   H     71.47000000    43.87000000    13.96000000
   H     72.82000000    42.93000000    13.24000000
   H     73.30000000    41.53000000    11.19000000
   H     72.19000000    41.00000000     9.97000000
   H     73.54000000    42.15000000     9.63000000
   N     69.29000000    41.33000000    14.78000000
   C     69.96000000    40.07000000    15.00000000
   C     71.23000000    40.21000000    15.83000000
   O     71.93000000    39.22000000    16.02000000
   C     69.13000000    38.98000000    15.68000000
   C     68.56000000    39.26000000    17.06000000
   O     68.39000000    40.43000000    17.47000000
   O     68.28000000    38.31000000    17.82000000
   H     68.60000000    41.58000000    15.48000000
   H     70.27000000    39.68000000    14.03000000
   H     69.68000000    38.04000000    15.66000000
   H     68.26000000    38.85000000    15.04000000
   N     71.52000000    41.37000000    16.42000000
   C     72.71000000    41.82000000    17.11000000
   C     72.74000000    41.25000000    18.53000000
   O     71.66000000    40.97000000    19.04000000
   C     72.88000000    43.33000000    17.08000000
   C     72.08000000    44.03000000    18.15000000
   C     70.70000000    44.13000000    17.96000000
   C     72.66000000    44.54000000    19.32000000
   C     69.86000000    44.59000000    18.98000000
   C     71.82000000    45.15000000    20.26000000
   C     70.42000000    45.10000000    20.16000000
   H     70.82000000    42.10000000    16.51000000
   H     73.57000000    41.38000000    16.61000000
   H     72.72000000    43.74000000    16.08000000
   H     73.93000000    43.48000000    17.34000000
   H     70.28000000    43.89000000    16.99000000
   H     73.73000000    44.53000000    19.45000000
   H     68.80000000    44.64000000    18.78000000
   H     72.29000000    45.60000000    21.12000000
   H     69.80000000    45.41000000    20.98000000
   N     73.87000000    40.98000000    19.19000000
   C     75.26000000    41.19000000    18.86000000
   C     75.76000000    40.18000000    17.82000000
   O     75.01000000    39.30000000    17.39000000
   C     76.07000000    41.08000000    20.15000000
   C     75.26000000    39.98000000    20.83000000
   C     73.83000000    40.43000000    20.53000000
   H     75.38000000    42.19000000    18.46000000
   H     77.10000000    40.78000000    19.96000000
   H     75.92000000    42.00000000    20.70000000
   H     75.30000000    39.01000000    20.32000000
   H     75.44000000    39.92000000    21.90000000
   H     73.11000000    39.62000000    20.65000000
   H     73.63000000    41.26000000    21.21000000
   N     76.95000000    40.43000000    17.27000000
   C     77.47000000    39.91000000    16.03000000
   C     78.56000000    40.75000000    15.39000000
   O     79.73000000    40.39000000    15.32000000
   C     77.91000000    38.49000000    16.39000000
   C     78.36000000    37.69000000    15.17000000
   C     77.28000000    37.52000000    14.11000000
   O     76.17000000    36.99000000    14.34000000
   O     77.48000000    38.08000000    13.01000000
   H     77.49000000    41.14000000    17.75000000
   H     76.67000000    39.85000000    15.28000000
   H     77.03000000    37.97000000    16.77000000
   H     78.77000000    38.43000000    17.05000000
   H     78.62000000    36.69000000    15.51000000
   H     79.28000000    38.17000000    14.81000000
   N     78.17000000    41.95000000    14.96000000
   C     76.99000000    42.76000000    15.19000000
   H     76.16800000    42.12100000    15.51300000
   H     77.20100000    43.49800000    15.96400000
   H     76.71300000    43.26900000    14.26700000
   H     78.90000000    42.38000000    14.40000000
  Ca     72.90000000    48.62000000     1.77000000
   O     71.19000000    50.42000000     2.71000000
   H     71.38000000    50.14000000     3.61000000
   H     70.25000000    50.59000000     2.71000000
   O     72.79000000    45.91000000     1.23000000
   H     72.92000000    45.13000000     1.77000000
   H     72.40000000    45.58000000     0.42000000
   O     75.76000000    48.85000000     0.53000000
   H     76.10000000    49.33000000    -0.24000000
   H     76.44000000    48.96000000     1.19000000
   O     74.78000000    47.18000000     3.09000000
   H     74.48000000    46.77000000     3.90000000
   H     75.58000000    46.70000000     2.86000000
   O     70.10000000    47.93000000     1.17000000
   H     69.72000000    47.29000000     1.78000000
   H     69.47000000    47.98000000     0.45000000
   O     72.87000000    48.24000000    -0.93300000
   H     72.80000000    47.75000000    -1.75300000
   H     73.02000000    49.14000000    -1.19300000

Ca 1.00



