%chk=loop4.apoCaM-CA-Ng.Init31.run83.water4.chk
%nprocshared=20
%mem=10GB
%nosave
#b3lyp/svp scf=(tight,noincore,xqc) Test 
#IOP(5/87=12) Density=Current Pop=(MK,readradii) iop(6/33=2) iop(6/42=6)

loop4.apoCaM-CA-Ng.Init31.run83.water4 

   -3  1 
   C     71.26000000    45.71000000    34.73000000
   C     72.14000000    46.82000000    34.17000000
   O     71.83000000    47.31000000    33.09000000
   H     70.30500000    45.70400000    34.20400000
   H     71.75600000    44.74900000    34.59400000
   H     71.08800000    45.88300000    35.79200000
   N     73.33000000    47.27000000    34.59000000
   C     74.14000000    46.80000000    35.70000000
   C     73.68000000    47.33000000    37.05000000
   O     73.72000000    46.59000000    38.03000000
   C     75.58000000    47.21000000    35.40000000
   C     76.61000000    46.58000000    36.31000000
   O     77.49000000    47.22000000    36.94000000
   O     76.46000000    45.37000000    36.61000000
   H     73.73000000    48.05000000    34.09000000
   H     74.12000000    45.71000000    35.76000000
   H     75.70000000    48.30000000    35.39000000
   H     75.87000000    46.93000000    34.39000000
   N     73.13000000    48.55000000    37.07000000
   C     72.49000000    49.24000000    38.16000000
   C     73.06000000    50.59000000    38.59000000
   O     72.73000000    51.10000000    39.66000000
   C     71.00000000    49.36000000    37.83000000
   C     70.05000000    49.60000000    39.00000000
   C     70.72000000    50.35000000    36.70000000
   C     68.57000000    49.57000000    38.65000000
   H     73.27000000    48.99000000    36.17000000
   H     72.57000000    48.52000000    38.98000000
   H     70.74000000    48.38000000    37.44000000
   H     70.22000000    50.55000000    39.50000000
   H     70.23000000    48.82000000    39.74000000
   H     70.73000000    51.35000000    37.13000000
   H     71.44000000    50.28000000    35.89000000
   H     69.75000000    50.06000000    36.29000000
   H     67.93000000    49.32000000    39.50000000
   H     68.19000000    50.41000000    38.07000000
   H     68.51000000    48.72000000    37.97000000
   N     73.90000000    51.28000000    37.81000000
   C     74.23000000    52.68000000    37.98000000
   C     75.51000000    52.96000000    38.74000000
   O     75.83000000    54.12000000    38.99000000
   C     74.09000000    53.33000000    36.60000000
   C     73.57000000    54.76000000    36.64000000
   O     72.36000000    54.99000000    36.42000000
   O     74.39000000    55.68000000    36.85000000
   H     74.12000000    50.91000000    36.90000000
   H     73.48000000    53.16000000    38.61000000
   H     73.32000000    52.78000000    36.07000000
   H     74.96000000    53.28000000    35.95000000
   N     76.25000000    51.98000000    39.26000000
   C     77.60000000    52.17000000    39.76000000
   C     78.63000000    52.74000000    38.78000000
   O     78.50000000    52.75000000    37.56000000
   H     75.90000000    51.04000000    39.18000000
   H     77.87000000    51.15000000    40.01000000
   H     77.65000000    52.76000000    40.68000000
   N     79.52000000    53.51000000    39.39000000
   C     80.66000000    54.09000000    38.70000000
   C     80.44000000    55.60000000    38.70000000
   O     79.82000000    56.18000000    39.58000000
   C     82.01000000    53.75000000    39.32000000
   C     81.95000000    53.36000000    40.79000000
   O     81.48000000    54.17000000    41.61000000
   O     82.13000000    52.13000000    40.97000000
   H     79.58000000    53.62000000    40.40000000
   H     80.69000000    53.83000000    37.64000000
   H     82.89000000    54.37000000    39.17000000
   H     82.30000000    52.85000000    38.78000000
   N     80.92000000    56.44000000    37.78000000
   C     81.68000000    56.06000000    36.61000000
   C     82.73000000    57.07000000    36.17000000
   O     82.62000000    58.26000000    36.44000000
   H     80.70000000    57.43000000    37.81000000
   H     81.00000000    55.74000000    35.82000000
   H     82.17000000    55.11000000    36.78000000
   N     83.88000000    56.66000000    35.62000000
   C     84.48000000    55.35000000    35.44000000
   C     83.64000000    54.40000000    34.59000000
   O     82.51000000    54.70000000    34.21000000
   C     84.92000000    54.76000000    36.78000000
   C     86.09000000    55.51000000    37.41000000
   C     86.45000000    54.85000000    38.73000000
   N     85.89000000    55.44000000    39.79000000
   O     87.05000000    53.80000000    38.93000000
   H     84.47000000    57.45000000    35.41000000
   H     85.41000000    55.63000000    34.95000000
   H     85.23000000    53.72000000    36.63000000
   H     84.15000000    54.79000000    37.54000000
   H     85.85000000    56.55000000    37.62000000
   H     86.96000000    55.54000000    36.75000000
   H     85.39000000    56.32000000    39.75000000
   H     86.02000000    54.91000000    40.64000000
   N     84.18000000    53.25000000    34.18000000
   C     83.56000000    52.25000000    33.34000000
   C     84.54000000    51.72000000    32.30000000
   O     85.71000000    51.46000000    32.56000000
   C     82.97000000    51.10000000    34.15000000
   C     82.24000000    50.04000000    33.34000000
   C     81.98000000    51.62000000    35.19000000
   H     85.11000000    53.01000000    34.48000000
   H     82.71000000    52.72000000    32.85000000
   H     83.83000000    50.67000000    34.66000000
   H     82.19000000    49.11000000    33.90000000
   H     81.23000000    50.35000000    33.05000000
   H     82.75000000    49.85000000    32.39000000
   H     81.31000000    52.39000000    34.79000000
   H     81.32000000    50.87000000    35.61000000
   H     82.62000000    51.96000000    36.00000000
   N     84.06000000    51.57000000    31.06000000
   C     84.94000000    51.10000000    30.00000000
   C     85.42000000    49.67000000    30.10000000
   O     85.95000000    49.22000000    29.09000000
   C     84.17000000    51.31000000    28.69000000
   C     83.91000000    52.79000000    28.44000000
   N     84.95000000    53.60000000    28.21000000
   O     82.76000000    53.20000000    28.32000000
   H     83.10000000    51.79000000    30.87000000
   H     85.81000000    51.75000000    29.87000000
   H     83.20000000    50.82000000    28.82000000
   H     84.67000000    50.90000000    27.82000000
   H     85.87000000    53.19000000    28.27000000
   H     84.65000000    54.57000000    28.19000000
   N     85.25000000    48.97000000    31.23000000
   C     85.42000000    47.55000000    31.45000000
   C     84.53000000    46.87000000    32.48000000
   O     84.18000000    47.43000000    33.52000000
   C     86.82000000    47.25000000    31.96000000
   C     87.16000000    45.85000000    32.40000000
   C     87.59000000    44.92000000    31.45000000
   C     87.14000000    45.54000000    33.77000000
   C     88.12000000    43.70000000    31.91000000
   C     87.48000000    44.25000000    34.20000000
   C     88.01000000    43.34000000    33.27000000
   O     88.51000000    42.20000000    33.84000000
   H     85.12000000    49.54000000    32.05000000
   H     85.25000000    47.06000000    30.49000000
   H     87.14000000    47.95000000    32.74000000
   H     87.47000000    47.45000000    31.11000000
   H     87.60000000    45.22000000    30.41000000
   H     86.79000000    46.26000000    34.50000000
   H     88.45000000    42.93000000    31.23000000
   H     87.37000000    43.98000000    35.24000000
   H     88.89000000    41.58000000    33.22000000
   N     84.15000000    45.63000000    32.13000000
   C     83.28000000    44.91000000    33.03000000
   C     81.95000000    44.67000000    32.32000000
   O     81.84000000    44.34000000    31.14000000
   C     84.00000000    43.61000000    33.39000000
   C     83.06000000    42.68000000    34.17000000
   C     83.83000000    41.45000000    34.62000000
   O     83.81000000    40.47000000    33.85000000
   O     84.46000000    41.41000000    35.70000000
   H     84.42000000    45.27000000    31.23000000
   H     83.11000000    45.51000000    33.93000000
   H     84.83000000    43.90000000    34.03000000
   H     84.37000000    43.05000000    32.54000000
   H     82.24000000    42.41000000    33.52000000
   H     82.69000000    43.24000000    35.03000000
   N     80.81000000    44.93000000    32.96000000
   C     79.54000000    45.04000000    32.27000000
   C     79.23000000    46.42000000    31.71000000
   O     78.17000000    47.00000000    31.96000000
   C     78.45000000    44.52000000    33.20000000
   C     78.66000000    43.05000000    33.55000000
   C     77.90000000    42.77000000    34.84000000
   O     76.70000000    42.43000000    34.87000000
   O     78.38000000    42.84000000    35.99000000
   H     80.89000000    45.42000000    33.84000000
   H     79.57000000    44.49000000    31.33000000
   H     77.49000000    44.66000000    32.71000000
   H     78.57000000    45.12000000    34.10000000
   H     79.71000000    42.74000000    33.64000000
   H     78.37000000    42.42000000    32.71000000
   N     80.19000000    46.97000000    30.96000000
   C     80.12000000    48.21000000    30.20000000
   H     79.58300000    48.96100000    30.77900000
   H     81.12900000    48.56600000    29.99100000
   H     79.59500000    48.03200000    29.26100000
   H     81.06000000    46.49000000    30.79000000
  Ca     76.22000000    42.91000000    37.44000000
   O     78.15000000    43.51000000    39.32000000
   H     77.73000000    43.43000000    40.18000000
   H     78.39000000    44.43000000    39.26000000
   O     75.68000000    41.64000000    39.89000000
   H     74.79000000    41.34000000    40.09000000
   H     76.01000000    41.99000000    40.71000000
   O     77.26000000    40.50000000    37.16000000
   H     77.15000000    39.55000000    37.25000000
   H     78.15000000    40.60000000    36.84000000
   O     75.10000000    44.36000000    39.23000000
   H     74.51000000    44.20000000    39.96000000
   H     74.84000000    45.22000000    38.89000000

Ca 1.00



