%chk=loop4.apoCaM-CA-Ng.Init295.run80.water4.chk
%nprocshared=20
%mem=10GB
%nosave
#b3lyp/svp scf=(tight,noincore,xqc) Test 
#IOP(5/87=12) Density=Current Pop=(MK,readradii) iop(6/33=2) iop(6/42=6)

loop4.apoCaM-CA-Ng.Init295.run80.water4 

   -3  1 
   C      3.02000000   -38.74000000    53.64000000
   C      2.18000000   -39.90000000    54.13000000
   O      1.24000000   -39.63000000    54.88000000
   H      3.98000000   -39.11300000    53.28400000
   H      2.50200000   -38.23400000    52.82500000
   H      3.18400000   -38.03800000    54.45800000
   N      2.42000000   -41.16000000    53.79000000
   C      1.82000000   -42.34000000    54.38000000
   C      0.31000000   -42.29000000    54.23000000
   O     -0.46000000   -42.60000000    55.13000000
   C      2.14000000   -42.55000000    55.86000000
   C      3.62000000   -42.45000000    56.19000000
   O      4.44000000   -43.24000000    55.67000000
   O      4.03000000   -41.73000000    57.13000000
   H      3.22000000   -41.33000000    53.19000000
   H      2.22000000   -43.23000000    53.88000000
   H      1.72000000   -43.49000000    56.22000000
   H      1.65000000   -41.74000000    56.41000000
   N     -0.06000000   -42.00000000    52.98000000
   C     -1.43000000   -41.86000000    52.54000000
   C     -2.08000000   -43.22000000    52.28000000
   O     -1.77000000   -43.75000000    51.22000000
   C     -1.66000000   -40.85000000    51.43000000
   C     -1.23000000   -39.48000000    51.95000000
   C     -3.05000000   -40.86000000    50.81000000
   C     -2.33000000   -38.80000000    52.77000000
   H      0.72000000   -41.90000000    52.34000000
   H     -1.90000000   -41.45000000    53.43000000
   H     -1.03000000   -41.10000000    50.57000000
   H     -1.07000000   -38.88000000    51.05000000
   H     -0.34000000   -39.51000000    52.58000000
   H     -3.74000000   -40.74000000    51.65000000
   H     -3.15000000   -40.03000000    50.11000000
   H     -3.19000000   -41.83000000    50.33000000
   H     -1.92000000   -37.89000000    53.19000000
   H     -3.16000000   -38.65000000    52.07000000
   H     -2.65000000   -39.51000000    53.53000000
   N     -2.97000000   -43.74000000    53.12000000
   C     -3.46000000   -43.25000000    54.39000000
   C     -3.50000000   -44.33000000    55.46000000
   O     -4.09000000   -44.20000000    56.53000000
   C     -4.76000000   -42.44000000    54.39000000
   C     -5.93000000   -43.19000000    53.76000000
   O     -5.87000000   -44.30000000    53.20000000
   O     -7.02000000   -42.58000000    53.74000000
   H     -3.32000000   -44.66000000    52.88000000
   H     -2.65000000   -42.63000000    54.78000000
   H     -4.55000000   -41.51000000    53.86000000
   H     -5.08000000   -42.22000000    55.40000000
   N     -2.98000000   -45.50000000    55.08000000
   C     -3.07000000   -46.73000000    55.84000000
   C     -4.47000000   -47.34000000    55.82000000
   O     -5.23000000   -47.22000000    54.87000000
   H     -2.42000000   -45.49000000    54.24000000
   H     -2.70000000   -46.62000000    56.86000000
   H     -2.41000000   -47.39000000    55.28000000
   N     -4.84000000   -47.76000000    57.04000000
   C     -6.18000000   -48.16000000    57.41000000
   C     -7.08000000   -46.96000000    57.62000000
   O     -8.21000000   -47.13000000    58.07000000
   C     -6.14000000   -48.97000000    58.70000000
   C     -4.90000000   -49.85000000    58.81000000
   O     -4.97000000   -50.88000000    58.10000000
   O     -3.99000000   -49.63000000    59.64000000
   H     -4.16000000   -47.66000000    57.78000000
   H     -6.72000000   -48.77000000    56.68000000
   H     -7.05000000   -49.55000000    58.87000000
   H     -6.12000000   -48.34000000    59.59000000
   N     -6.64000000   -45.72000000    57.38000000
   C     -7.53000000   -44.61000000    57.64000000
   C     -7.52000000   -44.19000000    59.10000000
   O     -8.31000000   -43.31000000    59.45000000
   H     -5.84000000   -45.68000000    56.76000000
   H     -8.57000000   -44.77000000    57.33000000
   H     -7.05000000   -43.74000000    57.18000000
   N     -6.63000000   -44.76000000    59.92000000
   C     -6.56000000   -44.58000000    61.36000000
   C     -6.28000000   -43.15000000    61.78000000
   O     -6.76000000   -42.72000000    62.83000000
   C     -7.88000000   -45.03000000    61.99000000
   C     -8.13000000   -46.52000000    61.80000000
   C     -7.22000000   -47.45000000    62.60000000
   N     -7.38000000   -48.77000000    62.45000000
   O     -6.28000000   -47.00000000    63.24000000
   H     -5.98000000   -45.35000000    59.43000000
   H     -5.68000000   -45.01000000    61.84000000
   H     -8.68000000   -44.43000000    61.55000000
   H     -8.03000000   -44.83000000    63.05000000
   H     -8.24000000   -46.89000000    60.79000000
   H     -9.16000000   -46.69000000    62.13000000
   H     -8.16000000   -49.11000000    61.92000000
   H     -6.59000000   -49.37000000    62.68000000
   N     -5.38000000   -42.46000000    61.09000000
   C     -5.22000000   -41.02000000    61.22000000
   C     -3.79000000   -40.68000000    61.61000000
   O     -2.80000000   -41.25000000    61.16000000
   C     -5.81000000   -40.40000000    59.95000000
   C     -5.92000000   -38.88000000    60.08000000
   C     -5.06000000   -40.82000000    58.69000000
   H     -4.92000000   -42.83000000    60.27000000
   H     -5.90000000   -40.62000000    61.97000000
   H     -6.84000000   -40.76000000    59.87000000
   H     -6.69000000   -38.78000000    60.84000000
   H     -4.94000000   -38.42000000    60.25000000
   H     -6.30000000   -38.50000000    59.13000000
   H     -5.13000000   -41.91000000    58.68000000
   H     -5.51000000   -40.46000000    57.77000000
   H     -4.00000000   -40.56000000    58.74000000
   N     -3.65000000   -39.68000000    62.48000000
   C     -2.41000000   -39.14000000    63.01000000
   C     -2.16000000   -37.71000000    62.55000000
   O     -2.91000000   -37.09000000    61.81000000
   C     -2.46000000   -39.30000000    64.52000000
   C     -2.76000000   -40.72000000    65.01000000
   N     -2.09000000   -41.77000000    64.54000000
   O     -3.51000000   -40.98000000    65.95000000
   H     -4.55000000   -39.46000000    62.88000000
   H     -1.56000000   -39.69000000    62.61000000
   H     -3.31000000   -38.67000000    64.78000000
   H     -1.56000000   -39.00000000    65.05000000
   H     -1.39000000   -41.71000000    63.81000000
   H     -2.26000000   -42.67000000    64.97000000
   N     -1.02000000   -37.14000000    62.96000000
   C     -0.65000000   -35.80000000    62.55000000
   C      0.87000000   -35.84000000    62.48000000
   O      1.59000000   -35.03000000    63.06000000
   C     -1.27000000   -34.80000000    63.52000000
   C     -1.14000000   -33.32000000    63.21000000
   C     -2.18000000   -32.82000000    62.42000000
   C     -0.04000000   -32.52000000    63.53000000
   C     -2.17000000   -31.51000000    61.93000000
   C     -0.05000000   -31.19000000    63.10000000
   C     -1.14000000   -30.66000000    62.39000000
   O     -1.22000000   -29.32000000    62.16000000
   H     -0.39000000   -37.69000000    63.53000000
   H     -0.83000000   -35.44000000    61.53000000
   H     -0.89000000   -35.04000000    64.51000000
   H     -2.32000000   -35.06000000    63.60000000
   H     -2.99000000   -33.46000000    62.11000000
   H      0.75000000   -32.88000000    64.18000000
   H     -2.91000000   -31.10000000    61.26000000
   H      0.75000000   -30.49000000    63.31000000
   H     -0.70000000   -28.78000000    62.76000000
   N      1.38000000   -36.72000000    61.62000000
   C      2.79000000   -36.82000000    61.32000000
   C      3.46000000   -35.72000000    60.51000000
   O      4.38000000   -35.08000000    61.02000000
   C      3.28000000   -38.14000000    60.72000000
   C      3.59000000   -39.25000000    61.72000000
   C      4.23000000   -40.50000000    61.16000000
   O      4.46000000   -41.46000000    61.93000000
   O      4.48000000   -40.52000000    59.93000000
   H      0.77000000   -37.30000000    61.05000000
   H      3.36000000   -36.71000000    62.24000000
   H      4.23000000   -37.91000000    60.24000000
   H      2.57000000   -38.56000000    60.01000000
   H      2.71000000   -39.53000000    62.31000000
   H      4.27000000   -38.71000000    62.38000000
   N      2.90000000   -35.22000000    59.40000000
   C      1.84000000   -35.75000000    58.57000000
   C      0.52000000   -35.01000000    58.75000000
   O      0.43000000   -34.06000000    59.52000000
   C      2.30000000   -35.62000000    57.12000000
   C      3.73000000   -35.97000000    56.71000000
   C      4.30000000   -37.28000000    57.23000000
   O      3.57000000   -38.26000000    57.49000000
   O      5.55000000   -37.31000000    57.25000000
   H      3.24000000   -34.33000000    59.08000000
   H      1.75000000   -36.81000000    58.79000000
   H      2.23000000   -34.55000000    56.98000000
   H      1.58000000   -36.21000000    56.56000000
   H      4.41000000   -35.14000000    56.91000000
   H      3.69000000   -35.95000000    55.62000000
   N     -0.58000000   -35.48000000    58.14000000
   C     -1.79000000   -34.81000000    57.72000000
   H     -2.56200000   -34.94800000    58.47700000
   H     -1.59200000   -33.74600000    57.59400000
   H     -2.13000000   -35.23200000    56.77400000
   H     -0.55000000   -36.39000000    57.71000000
  Ca      5.79000000   -39.90600000    57.62000000
   O      7.05000000   -38.48600000    59.67000000
   H      7.26000000   -37.60600000    59.35000000
   H      7.67000000   -38.63600000    60.39000000
   O      6.73000000   -41.88600000    56.19000000
   H      7.17000000   -42.23600000    55.42000000
   H      5.87000000   -42.30600000    56.19000000
   O      7.84000000   -41.09600000    58.92000000
   H      8.54000000   -41.19600000    58.27000000
   H      8.30000000   -40.96600000    59.75000000
   O      8.19000000   -39.20600000    56.79000000
   H      8.50000000   -39.61600000    55.98000000
   H      8.89000000   -38.61600000    57.06000000

Ca 1.00



