%chk=loop4.holoCaM.run80.water2.chk
%nprocshared=20
%mem=10GB
%nosave
#b3lyp/svp scf=(tight,noincore,xqc) Test 
#IOP(5/87=12) Density=Current Pop=(MK,readradii) iop(6/33=2) iop(6/42=6)

loop4.holoCaM.run80.water2 

   -3  1 
   C     71.07000000    73.46000000    33.51000000
   C     70.90000000    74.47000000    34.63000000
   O     69.75000000    74.75000000    34.96000000
   H     72.10900000    73.13400000    33.47000000
   H     70.42700000    72.59900000    33.69500000
   H     70.79700000    73.92000000    32.56000000
   N     72.01000000    74.90000000    35.23000000
   C     72.05000000    75.95000000    36.23000000
   C     72.03000000    77.32000000    35.58000000
   O     72.78000000    77.60000000    34.64000000
   C     73.25000000    75.75000000    37.15000000
   C     73.24000000    76.82000000    38.24000000
   O     74.35000000    77.08000000    38.74000000
   O     72.22000000    77.45000000    38.57000000
   H     72.90000000    74.47000000    35.04000000
   H     71.19000000    75.88000000    36.90000000
   H     74.12000000    75.93000000    36.51000000
   H     73.29000000    74.79000000    37.65000000
   N     71.16000000    78.23000000    36.00000000
   C     70.91000000    79.49000000    35.32000000
   C     71.58000000    80.58000000    36.15000000
   O     72.17000000    81.51000000    35.61000000
   C     69.44000000    79.80000000    35.11000000
   C     68.85000000    78.81000000    34.11000000
   C     69.05000000    81.22000000    34.68000000
   C     67.38000000    78.93000000    33.70000000
   H     70.41000000    77.86000000    36.57000000
   H     71.47000000    79.54000000    34.39000000
   H     68.98000000    79.70000000    36.09000000
   H     68.93000000    77.83000000    34.59000000
   H     69.52000000    78.84000000    33.25000000
   H     69.71000000    81.86000000    35.25000000
   H     69.17000000    81.38000000    33.61000000
   H     67.99000000    81.34000000    34.93000000
   H     66.89000000    78.72000000    34.65000000
   H     67.15000000    79.96000000    33.44000000
   H     67.15000000    78.17000000    32.95000000
   N     71.53000000    80.50000000    37.48000000
   C     71.86000000    81.55000000    38.43000000
   C     73.13000000    81.39000000    39.25000000
   O     73.51000000    82.32000000    39.95000000
   C     70.66000000    81.93000000    39.28000000
   C     70.07000000    80.71000000    39.98000000
   O     68.84000000    80.53000000    40.04000000
   O     70.82000000    79.84000000    40.47000000
   H     71.19000000    79.61000000    37.81000000
   H     72.02000000    82.41000000    37.79000000
   H     69.90000000    82.30000000    38.59000000
   H     70.91000000    82.72000000    39.98000000
   N     73.85000000    80.27000000    39.10000000
   C     75.24000000    80.11000000    39.48000000
   C     75.57000000    79.43000000    40.80000000
   O     76.52000000    79.82000000    41.47000000
   H     73.52000000    79.48000000    38.56000000
   H     75.68000000    81.10000000    39.43000000
   H     75.68000000    79.44000000    38.74000000
   N     74.67000000    78.60000000    41.33000000
   C     74.84000000    77.86000000    42.56000000
   C     75.15000000    76.39000000    42.30000000
   O     75.31000000    75.68000000    43.30000000
   C     73.65000000    78.03000000    43.50000000
   C     72.30000000    77.64000000    42.92000000
   O     71.31000000    77.75000000    43.68000000
   O     72.23000000    77.27000000    41.73000000
   H     73.84000000    78.53000000    40.75000000
   H     75.69000000    78.33000000    43.05000000
   H     73.64000000    79.05000000    43.89000000
   H     73.92000000    77.42000000    44.36000000
   N     75.42000000    75.97000000    41.07000000
   C     75.72000000    74.62000000    40.65000000
   C     74.60000000    73.62000000    40.87000000
   O     74.82000000    72.41000000    40.98000000
   H     75.20000000    76.64000000    40.34000000
   H     76.65000000    74.31000000    41.13000000
   H     75.95000000    74.53000000    39.59000000
   N     73.39000000    74.14000000    41.04000000
   C     72.21000000    73.41000000    41.44000000
   C     70.99000000    73.76000000    40.60000000
   O     71.02000000    74.75000000    39.87000000
   C     71.87000000    73.67000000    42.91000000
   C     72.97000000    73.15000000    43.83000000
   C     72.88000000    73.72000000    45.24000000
   N     73.68000000    74.73000000    45.58000000
   O     72.15000000    73.24000000    46.10000000
   H     73.24000000    75.10000000    40.75000000
   H     72.37000000    72.33000000    41.33000000
   H     70.94000000    73.15000000    43.14000000
   H     71.70000000    74.74000000    43.01000000
   H     73.99000000    73.05000000    43.45000000
   H     72.71000000    72.11000000    44.02000000
   H     74.20000000    75.13000000    44.81000000
   H     73.67000000    74.95000000    46.57000000
   N     69.91000000    72.99000000    40.70000000
   C     68.65000000    73.29000000    40.03000000
   C     67.52000000    73.19000000    41.04000000
   O     67.38000000    72.18000000    41.73000000
   C     68.33000000    72.40000000    38.83000000
   C     69.21000000    72.62000000    37.60000000
   C     68.33000000    70.91000000    39.17000000
   H     69.93000000    72.16000000    41.27000000
   H     68.62000000    74.26000000    39.54000000
   H     67.29000000    72.64000000    38.61000000
   H     69.32000000    73.70000000    37.46000000
   H     70.16000000    72.09000000    37.64000000
   H     68.63000000    72.23000000    36.76000000
   H     67.34000000    70.80000000    39.63000000
   H     68.45000000    70.25000000    38.31000000
   H     69.01000000    70.59000000    39.96000000
   N     66.66000000    74.21000000    40.99000000
   C     65.37000000    74.40000000    41.62000000
   C     64.29000000    73.88000000    40.67000000
   O     64.61000000    73.52000000    39.54000000
   C     65.26000000    75.82000000    42.15000000
   C     64.55000000    76.75000000    41.17000000
   N     65.28000000    77.43000000    40.29000000
   O     63.33000000    76.91000000    41.29000000
   H     66.99000000    74.85000000    40.28000000
   H     65.33000000    73.70000000    42.45000000
   H     66.24000000    76.25000000    42.34000000
   H     64.66000000    75.74000000    43.06000000
   H     66.28000000    77.32000000    40.23000000
   H     64.83000000    78.16000000    39.76000000
   N     63.01000000    73.92000000    41.02000000
   C     61.92000000    73.53000000    40.14000000
   C     61.93000000    74.39000000    38.89000000
   O     61.77000000    73.86000000    37.79000000
   C     60.69000000    73.68000000    41.03000000
   C     59.43000000    73.20000000    40.35000000
   C     59.31000000    72.03000000    39.59000000
   C     58.22000000    73.86000000    40.60000000
   C     58.13000000    71.62000000    38.95000000
   C     56.99000000    73.54000000    39.99000000
   C     56.97000000    72.38000000    39.19000000
   O     55.81000000    71.93000000    38.63000000
   H     62.87000000    74.37000000    41.91000000
   H     62.05000000    72.47000000    39.93000000
   H     60.52000000    74.71000000    41.32000000
   H     60.87000000    73.12000000    41.95000000
   H     60.16000000    71.38000000    39.42000000
   H     58.25000000    74.74000000    41.22000000
   H     58.20000000    70.79000000    38.26000000
   H     56.07000000    74.10000000    40.09000000
   H     55.06000000    72.44000000    38.94000000
   N     62.22000000    75.68000000    39.05000000
   C     62.16000000    76.64000000    37.96000000
   C     63.07000000    76.35000000    36.78000000
   O     62.74000000    76.60000000    35.62000000
   C     62.36000000    78.05000000    38.52000000
   C     61.95000000    79.01000000    37.41000000
   C     61.81000000    80.46000000    37.83000000
   O     62.85000000    81.14000000    37.93000000
   O     60.69000000    80.86000000    38.22000000
   H     62.53000000    76.00000000    39.95000000
   H     61.15000000    76.55000000    37.56000000
   H     63.41000000    78.19000000    38.76000000
   H     61.69000000    78.21000000    39.37000000
   H     61.02000000    78.64000000    36.96000000
   H     62.69000000    79.08000000    36.62000000
   N     64.21000000    75.76000000    37.15000000
   C     65.23000000    75.31000000    36.23000000
   C     64.99000000    73.89000000    35.75000000
   O     65.25000000    73.47000000    34.63000000
   C     66.63000000    75.31000000    36.83000000
   C     67.22000000    76.71000000    37.00000000
   C     68.21000000    76.91000000    38.14000000
   O     67.99000000    76.44000000    39.27000000
   O     69.21000000    77.64000000    37.96000000
   H     64.41000000    75.82000000    38.14000000
   H     65.17000000    75.97000000    35.36000000
   H     67.34000000    74.70000000    36.28000000
   H     66.65000000    74.84000000    37.81000000
   H     66.37000000    77.35000000    37.24000000
   H     67.62000000    76.86000000    36.00000000
   N     64.34000000    73.07000000    36.59000000
   C     63.99000000    71.72000000    36.21000000
   H     63.06700000    71.73400000    35.63100000
   H     64.79100000    71.29300000    35.60600000
   H     63.84700000    71.11500000    37.10600000
   H     64.39000000    73.35000000    37.56000000
  Ca     70.27000000    77.35000000    40.28000000
   O     69.68000000    75.89000000    42.60000000
   H     69.12000000    75.67000000    43.34000000
   H     70.33000000    76.48000000    42.96000000
   O     68.26000000    78.51000000    41.40000000
   H     68.01000000    79.29000000    40.91000000
   H     68.01000000    78.70000000    42.30000000

Ca 1.00



