%chk=loop2.apoCaM-CA-Ng.Init31.run9.water3.chk
%nprocshared=20
%mem=10GB
%nosave
#b3lyp/svp scf=(tight,noincore,xqc) Test 
#IOP(5/87=12) Density=Current Pop=(MK,readradii) iop(6/33=2) iop(6/42=6)

loop2.apoCaM-CA-Ng.Init31.run9.water3 

   -2  1 
   C     56.52000000    61.24000000    10.06000000
   C     55.66000000    62.38000000    10.59000000
   O     56.16000000    63.40000000    11.07000000
   H     57.47700000    61.23500000    10.58100000
   H     56.01100000    60.29100000    10.22800000
   H     56.68900000    61.37800000     8.99200000
   N     54.33000000    62.28000000    10.64000000
   C     53.44000000    61.31000000    10.03000000
   C     52.49000000    60.73000000    11.08000000
   O     51.89000000    61.53000000    11.78000000
   C     52.60000000    61.81000000     8.86000000
   C     52.16000000    63.27000000     8.85000000
   O     52.21000000    63.96000000     7.81000000
   O     51.73000000    63.75000000     9.92000000
   H     53.79000000    63.07000000    10.95000000
   H     54.05000000    60.51000000     9.62000000
   H     51.67000000    61.28000000     8.66000000
   H     53.08000000    61.57000000     7.92000000
   N     52.45000000    59.39000000    11.13000000
   C     51.44000000    58.63000000    11.83000000
   C     50.10000000    58.79000000    11.13000000
   O     49.52000000    57.87000000    10.56000000
   C     51.39000000    59.00000000    13.31000000
   H     53.11000000    58.88000000    10.55000000
   H     51.56000000    57.55000000    11.76000000
   H     50.96000000    59.98000000    13.51000000
   H     50.70000000    58.44000000    13.93000000
   H     52.42000000    58.99000000    13.67000000
   N     49.61000000    60.02000000    10.98000000
   C     48.34000000    60.44000000    10.44000000
   C     48.59000000    61.73000000     9.66000000
   O     49.18000000    62.70000000    10.13000000
   C     47.38000000    60.59000000    11.61000000
   C     47.84000000    61.12000000    12.96000000
   O     48.72000000    62.01000000    13.02000000
   O     47.29000000    60.62000000    13.97000000
   H     50.05000000    60.74000000    11.53000000
   H     47.93000000    59.68000000     9.77000000
   H     47.04000000    59.57000000    11.80000000
   H     46.52000000    61.17000000    11.26000000
   N     48.08000000    61.73000000     8.43000000
   C     48.35000000    62.54000000     7.25000000
   C     47.85000000    63.98000000     7.33000000
   O     47.26000000    64.52000000     6.40000000
   H     47.57000000    60.89000000     8.21000000
   H     47.80000000    62.15000000     6.40000000
   H     49.39000000    62.49000000     6.94000000
   N     47.87000000    64.57000000     8.53000000
   C     47.63000000    65.96000000     8.85000000
   C     48.90000000    66.74000000     9.19000000
   O     48.76000000    67.93000000     9.45000000
   C     46.62000000    66.01000000     9.99000000
   C     47.17000000    65.51000000    11.32000000
   N     46.29000000    65.44000000    12.31000000
   O     48.34000000    65.16000000    11.48000000
   H     48.19000000    63.91000000     9.22000000
   H     47.20000000    66.46000000     7.98000000
   H     45.66000000    65.55000000     9.76000000
   H     46.45000000    67.05000000    10.26000000
   H     45.42000000    65.95000000    12.26000000
   H     46.74000000    65.25000000    13.20000000
   N     50.10000000    66.15000000     9.25000000
   C     51.33000000    66.78000000     9.69000000
   C     51.50000000    67.13000000    11.16000000
   O     51.27000000    66.25000000    11.99000000
   H     50.08000000    65.15000000     9.13000000
   H     51.27000000    67.71000000     9.13000000
   H     52.18000000    66.14000000     9.46000000
   N     51.85000000    68.37000000    11.52000000
   C     52.23000000    69.51000000    10.70000000
   C     53.72000000    69.69000000    10.45000000
   O     54.13000000    70.39000000     9.52000000
   C     51.84000000    70.82000000    11.36000000
   C     50.32000000    70.82000000    11.57000000
   O     52.53000000    70.97000000    12.58000000
   H     51.75000000    68.55000000    12.51000000
   H     51.72000000    69.48000000     9.73000000
   H     52.07000000    71.60000000    10.63000000
   H     52.71000000    71.91000000    12.66000000
   H     49.77000000    70.45000000    10.71000000
   H     50.19000000    70.24000000    12.49000000
   H     49.96000000    71.84000000    11.62000000
   N     54.58000000    69.18000000    11.33000000
   C     55.90000000    69.62000000    11.74000000
   C     55.79000000    71.12000000    11.98000000
   O     55.89000000    71.89000000    11.02000000
   C     57.10000000    69.39000000    10.82000000
   C     57.20000000    67.92000000    10.43000000
   C     58.33000000    69.80000000    11.62000000
   C     58.41000000    67.36000000     9.69000000
   H     54.25000000    68.46000000    11.95000000
   H     56.17000000    69.09000000    12.65000000
   H     57.10000000    70.04000000     9.95000000
   H     56.27000000    67.59000000     9.96000000
   H     57.22000000    67.47000000    11.42000000
   H     58.26000000    70.81000000    12.03000000
   H     58.42000000    69.13000000    12.48000000
   H     59.18000000    69.78000000    10.94000000
   H     58.04000000    66.43000000     9.26000000
   H     58.72000000    68.01000000     8.87000000
   H     59.28000000    67.31000000    10.34000000
   N     55.75000000    71.60000000    13.22000000
   C     55.84000000    70.90000000    14.48000000
   C     57.25000000    70.62000000    14.97000000
   O     57.53000000    69.60000000    15.59000000
   C     55.13000000    71.71000000    15.56000000
   C     55.33000000    73.22000000    15.61000000
   O     54.56000000    73.90000000    16.33000000
   O     56.23000000    73.71000000    14.90000000
   H     55.62000000    72.60000000    13.31000000
   H     55.26000000    69.98000000    14.40000000
   H     55.38000000    71.21000000    16.50000000
   H     54.08000000    71.51000000    15.33000000
   N     58.18000000    71.54000000    14.68000000
   C     59.60000000    71.31000000    14.86000000
   C     60.06000000    71.40000000    16.30000000
   O     59.43000000    72.14000000    17.06000000
   C     60.36000000    72.27000000    13.94000000
   C     60.21000000    73.70000000    14.39000000
   C     59.08000000    74.41000000    13.95000000
   C     61.18000000    74.38000000    15.14000000
   C     59.01000000    75.80000000    14.15000000
   C     61.04000000    75.73000000    15.47000000
   C     60.04000000    76.46000000    14.82000000
   H     57.90000000    72.50000000    14.50000000
   H     59.81000000    70.30000000    14.50000000
   H     59.90000000    72.15000000    12.96000000
   H     61.43000000    72.10000000    13.94000000
   H     58.34000000    73.94000000    13.32000000
   H     62.10000000    73.87000000    15.39000000
   H     58.14000000    76.37000000    13.85000000
   H     61.84000000    76.26000000    15.98000000
   H     60.02000000    77.52000000    15.01000000
   N     61.19000000    70.84000000    16.73000000
   C     62.06000000    69.88000000    16.08000000
   C     61.45000000    68.49000000    16.04000000
   O     60.32000000    68.30000000    16.49000000
   C     63.34000000    69.83000000    16.92000000
   C     63.26000000    71.07000000    17.80000000
   C     61.76000000    71.19000000    18.02000000
   H     62.35000000    70.24000000    15.09000000
   H     63.40000000    68.90000000    17.50000000
   H     64.19000000    69.72000000    16.25000000
   H     63.89000000    71.09000000    18.69000000
   H     63.46000000    71.94000000    17.17000000
   H     61.46000000    70.52000000    18.83000000
   H     61.59000000    72.22000000    18.31000000
   N     62.17000000    67.51000000    15.49000000
   C     61.89000000    66.09000000    15.58000000
   C     62.45000000    65.20000000    14.48000000
   O     62.37000000    63.98000000    14.56000000
   C     62.28000000    65.56000000    16.96000000
   C     63.77000000    65.44000000    17.25000000
   C     63.92000000    65.07000000    18.72000000
   O     63.52000000    65.88000000    19.58000000
   O     64.48000000    64.02000000    19.09000000
   H     63.14000000    67.78000000    15.45000000
   H     60.81000000    65.97000000    15.52000000
   H     61.84000000    64.56000000    17.01000000
   H     61.83000000    66.23000000    17.69000000
   H     64.42000000    66.31000000    17.09000000
   H     64.12000000    64.56000000    16.71000000
   N     62.87000000    65.70000000    13.32000000
   C     63.03000000    66.97000000    12.63000000
   H     64.04600000    67.04800000    12.24400000
   H     62.32200000    67.02600000    11.80300000
   H     62.84300000    67.78800000    13.32500000
   H     63.05000000    64.86000000    12.79000000
  Ca     50.61000000    63.75000000    12.24000000
   O     51.33000000    62.32000000    14.54000000
   H     52.06000000    61.76000000    14.81000000
   H     50.61000000    62.06000000    15.11000000
   O     53.15000000    63.98000000    12.86000000
   H     53.77000000    63.37000000    13.26000000
   H     53.67000000    64.44000000    12.20000000
   O     49.14000000    64.73000000    14.35000000
   H     48.38000000    64.18000000    14.52000000
   H     49.06000000    65.46000000    14.98000000

Ca 1.00



