%chk=loop4.holoCaM-CaMKII.run39.water1.chk
%nprocshared=20
%mem=10GB
%nosave
#b3lyp/svp scf=(tight,noincore,xqc) Test 
#IOP(5/87=12) Density=Current Pop=(MK,readradii) iop(6/33=2) iop(6/42=6)

loop4.holoCaM-CaMKII.run39.water1 

   -3  1 
   C    103.86000000    51.14000000     8.51700000
   C    104.58000000    51.96000000     9.57700000
   O    104.38000000    53.17000000     9.61700000
   H    102.94800000    51.65600000     8.21600000
   H    104.50900000    51.01500000     7.65000000
   H    103.60500000    50.16200000     8.92500000
   N    105.38000000    51.38000000    10.47700000
   C    106.27000000    52.13000000    11.33700000
   C    107.33000000    52.79000000    10.47700000
   O    108.15000000    52.11000000     9.86700000
   C    106.88000000    51.19000000    12.37700000
   C    107.95000000    51.90000000    13.19700000
   O    107.71000000    53.03000000    13.66700000
   O    109.01000000    51.27000000    13.38700000
   H    105.50000000    50.38000000    10.48700000
   H    105.63000000    52.89000000    11.77700000
   H    107.37000000    50.33000000    11.92700000
   H    106.10000000    50.85000000    13.06700000
   N    107.50000000    54.12000000    10.44700000
   C    108.27000000    54.89000000     9.49700000
   C    109.26000000    55.84000000    10.16700000
   O    110.09000000    56.45000000     9.50700000
   C    107.41000000    55.53000000     8.40700000
   C    106.34000000    56.46000000     8.97700000
   C    106.89000000    54.48000000     7.43700000
   C    106.78000000    57.79000000     9.58700000
   H    106.90000000    54.56000000    11.12700000
   H    108.93000000    54.16000000     9.02700000
   H    108.09000000    56.08000000     7.75700000
   H    105.75000000    55.95000000     9.73700000
   H    105.57000000    56.68000000     8.23700000
   H    107.68000000    54.01000000     6.85700000
   H    106.26000000    53.75000000     7.94700000
   H    106.34000000    55.10000000     6.71700000
   H    107.51000000    58.28000000     8.93700000
   H    105.92000000    58.43000000     9.75700000
   H    107.18000000    57.60000000    10.57700000
   N    109.10000000    56.04000000    11.47700000
   C    110.06000000    56.74000000    12.31700000
   C    110.87000000    55.75000000    13.12700000
   O    111.90000000    56.15000000    13.67700000
   C    109.44000000    57.96000000    12.98700000
   C    108.12000000    57.78000000    13.72700000
   O    107.71000000    56.68000000    14.15700000
   O    107.35000000    58.76000000    13.73700000
   H    108.24000000    55.68000000    11.85700000
   H    110.83000000    57.23000000    11.71700000
   H    109.30000000    58.59000000    12.10700000
   H    110.21000000    58.34000000    13.66700000
   N    110.55000000    54.45000000    13.16700000
   C    111.33000000    53.35000000    13.67700000
   C    111.34000000    53.20000000    15.19700000
   O    112.23000000    53.80000000    15.80700000
   H    109.65000000    54.16000000    12.79700000
   H    112.30000000    53.56000000    13.22700000
   H    110.90000000    52.47000000    13.18700000
   N    110.32000000    52.55000000    15.74700000
   C    110.19000000    52.18000000    17.14700000
   C    109.33000000    50.96000000    17.39700000
   O    109.28000000    50.43000000    18.50700000
   C    109.48000000    53.33000000    17.86700000
   C    108.26000000    53.88000000    17.13700000
   O    108.36000000    54.98000000    16.55700000
   O    107.25000000    53.19000000    16.88700000
   H    109.68000000    52.16000000    15.06700000
   H    111.14000000    52.08000000    17.67700000
   H    110.14000000    54.20000000    17.82700000
   H    109.30000000    53.04000000    18.89700000
   N    108.74000000    50.37000000    16.35700000
   C    108.02000000    49.12000000    16.28700000
   C    106.51000000    49.30000000    16.43700000
   O    105.77000000    48.33000000    16.49700000
   H    108.82000000    50.80000000    15.44700000
   H    108.38000000    48.45000000    17.06700000
   H    108.24000000    48.74000000    15.28700000
   N    105.98000000    50.52000000    16.51700000
   C    104.59000000    50.90000000    16.68700000
   C    104.07000000    51.91000000    15.66700000
   O    104.87000000    52.68000000    15.13700000
   C    104.22000000    51.40000000    18.08700000
   C    104.55000000    50.44000000    19.22700000
   C    103.39000000    49.92000000    20.05700000
   N    103.58000000    49.35000000    21.24700000
   O    102.22000000    50.22000000    19.80700000
   H    106.61000000    51.30000000    16.39700000
   H    104.00000000    50.00000000    16.54700000
   H    103.14000000    51.45000000    18.04700000
   H    104.63000000    52.39000000    18.27700000
   H    105.39000000    50.82000000    19.80700000
   H    104.84000000    49.55000000    18.66700000
   H    104.49000000    49.26000000    21.66700000
   H    102.77000000    49.05000000    21.77700000
   N    102.79000000    51.86000000    15.32700000
   C    102.26000000    52.60000000    14.19700000
   C    101.15000000    53.53000000    14.66700000
   O    100.04000000    53.07000000    14.90700000
   C    101.72000000    51.57000000    13.19700000
   C    101.19000000    52.21000000    11.91700000
   C    102.59000000    50.42000000    12.70700000
   H    102.25000000    51.10000000    15.71700000
   H    103.01000000    53.20000000    13.66700000
   H    100.86000000    51.14000000    13.71700000
   H    100.72000000    51.49000000    11.25700000
   H    100.53000000    53.06000000    12.07700000
   H    102.04000000    52.59000000    11.35700000
   H    103.46000000    50.71000000    12.12700000
   H    102.93000000    49.73000000    13.48700000
   H    101.88000000    49.87000000    12.07700000
   N    101.48000000    54.81000000    14.83700000
   C    100.53000000    55.84000000    15.19700000
   C     99.55000000    56.21000000    14.10700000
   O     99.76000000    55.97000000    12.91700000
   C    101.35000000    57.06000000    15.63700000
   C    100.54000000    58.27000000    16.07700000
   N     99.96000000    58.19000000    17.27700000
   O    100.39000000    59.30000000    15.43700000
   H    102.45000000    55.05000000    14.70700000
   H     99.92000000    55.44000000    16.00700000
   H    101.93000000    57.32000000    14.74700000
   H    102.05000000    56.84000000    16.43700000
   H     99.99000000    57.33000000    17.81700000
   H     99.52000000    58.96000000    17.75700000
   N     98.37000000    56.77000000    14.39700000
   C     97.43000000    57.37000000    13.46700000
   C     98.01000000    58.10000000    12.26700000
   O     97.76000000    57.72000000    11.12700000
   C     96.53000000    58.28000000    14.28700000
   C     95.44000000    58.85000000    13.41700000
   C     94.25000000    58.15000000    13.21700000
   C     95.59000000    60.10000000    12.79700000
   C     93.20000000    58.64000000    12.41700000
   C     94.57000000    60.65000000    12.01700000
   C     93.41000000    59.88000000    11.78700000
   O     92.37000000    60.34000000    11.03700000
   H     98.17000000    56.84000000    15.38700000
   H     96.82000000    56.60000000    12.99700000
   H     97.09000000    59.12000000    14.71700000
   H     96.11000000    57.78000000    15.16700000
   H     94.10000000    57.17000000    13.64700000
   H     96.50000000    60.65000000    12.94700000
   H     92.34000000    58.00000000    12.30700000
   H     94.76000000    61.64000000    11.63700000
   H     92.64000000    61.18000000    10.64700000
   N     98.97000000    59.00000000    12.51700000
   C     99.60000000    59.78000000    11.46700000
   C    100.49000000    58.92000000    10.58700000
   O    100.71000000    59.31000000     9.44700000
   C    100.37000000    60.92000000    12.12700000
   C     99.41000000    61.75000000    12.97700000
   C    100.09000000    63.08000000    13.25700000
   O    100.29000000    63.85000000    12.29700000
   O    100.65000000    63.29000000    14.35700000
   H     99.17000000    59.22000000    13.47700000
   H     98.86000000    60.20000000    10.78700000
   H    100.96000000    61.51000000    11.41700000
   H    101.09000000    60.47000000    12.81700000
   H     99.26000000    61.16000000    13.87700000
   H     98.43000000    61.89000000    12.52700000
   N    101.04000000    57.77000000    10.99700000
   C    101.69000000    56.77000000    10.17700000
   C    100.76000000    55.87000000     9.36700000
   O    101.02000000    55.53000000     8.21700000
   C    102.64000000    55.96000000    11.05700000
   C    103.71000000    56.66000000    11.88700000
   C    104.59000000    55.82000000    12.80700000
   O    105.75000000    55.46000000    12.51700000
   O    104.17000000    55.47000000    13.92700000
   H    100.81000000    57.55000000    11.95700000
   H    102.38000000    57.36000000     9.56700000
   H    103.07000000    55.24000000    10.34700000
   H    102.07000000    55.30000000    11.70700000
   H    103.20000000    57.35000000    12.55700000
   H    104.36000000    57.28000000    11.25700000
   N     99.62000000    55.50000000     9.95700000
   C     98.59000000    54.74000000     9.28700000
   H     97.73100000    55.38300000     9.09600000
   H     98.97500000    54.36000000     8.34100000
   H     98.28500000    53.90500000     9.91800000
   H     99.41000000    55.83000000    10.88700000
  Ca    106.38300000    54.73000000    14.95000000
   O    104.99300000    55.95000000    16.93000000
   H    104.97300000    56.75000000    16.41000000
   H    105.29300000    56.23000000    17.80000000

Ca 1.00



