%chk=loop2.apoCaM-CA-Ng.Init31.run12.water3.chk
%nprocshared=20
%mem=10GB
%nosave
#b3lyp/svp scf=(tight,noincore,xqc) Test 
#IOP(5/87=12) Density=Current Pop=(MK,readradii) iop(6/33=2) iop(6/42=6)

loop2.apoCaM-CA-Ng.Init31.run12.water3 

   -2  1 
   C     59.10000000    64.28000000     7.98000000
   C     58.39000000    65.53000000     7.48000000
   O     58.97000000    66.50000000     7.00000000
   H     60.03700000    64.56300000     8.46000000
   H     58.46500000    63.76400000     8.70000000
   H     59.30900000    63.61900000     7.13900000
   N     57.06000000    65.61000000     7.50000000
   C     56.01000000    64.66000000     7.81000000
   C     55.06000000    65.28000000     8.82000000
   O     54.59000000    66.38000000     8.52000000
   C     55.34000000    64.05000000     6.58000000
   C     54.86000000    65.06000000     5.54000000
   O     54.22000000    64.62000000     4.56000000
   O     55.17000000    66.26000000     5.64000000
   H     56.68000000    66.49000000     7.18000000
   H     56.47000000    63.83000000     8.35000000
   H     54.49000000    63.52000000     7.01000000
   H     55.98000000    63.31000000     6.10000000
   N     54.70000000    64.55000000     9.88000000
   C     53.49000000    64.77000000    10.64000000
   C     52.17000000    64.65000000     9.89000000
   O     51.70000000    63.55000000     9.60000000
   C     53.57000000    66.04000000    11.48000000
   H     55.10000000    63.63000000    10.01000000
   H     53.43000000    63.98000000    11.39000000
   H     53.70000000    66.88000000    10.79000000
   H     52.65000000    66.08000000    12.06000000
   H     54.49000000    65.92000000    12.05000000
   N     51.45000000    65.74000000     9.61000000
   C     50.50000000    65.67000000     8.52000000
   C     51.25000000    65.40000000     7.23000000
   O     52.35000000    65.85000000     6.92000000
   C     49.69000000    66.96000000     8.41000000
   C     50.46000000    68.28000000     8.34000000
   O     51.68000000    68.37000000     8.10000000
   O     49.86000000    69.37000000     8.44000000
   H     51.73000000    66.69000000     9.79000000
   H     49.83000000    64.83000000     8.68000000
   H     49.06000000    66.90000000     9.29000000
   H     48.99000000    66.84000000     7.58000000
   N     50.64000000    64.59000000     6.37000000
   C     51.25000000    63.92000000     5.25000000
   C     51.35000000    64.68000000     3.94000000
   O     51.12000000    64.05000000     2.91000000
   H     49.73000000    64.23000000     6.62000000
   H     50.58000000    63.08000000     5.07000000
   H     52.21000000    63.55000000     5.63000000
   N     51.63000000    65.99000000     3.98000000
   C     51.54000000    66.91000000     2.86000000
   C     52.79000000    67.56000000     2.30000000
   O     52.64000000    68.38000000     1.40000000
   C     50.57000000    68.04000000     3.21000000
   C     51.06000000    68.92000000     4.35000000
   N     50.47000000    70.10000000     4.55000000
   O     51.92000000    68.56000000     5.16000000
   H     51.75000000    66.38000000     4.90000000
   H     51.18000000    66.32000000     2.02000000
   H     49.59000000    67.64000000     3.50000000
   H     50.46000000    68.71000000     2.36000000
   H     49.71000000    70.48000000     4.02000000
   H     50.69000000    70.69000000     5.34000000
   N     53.92000000    67.15000000     2.88000000
   C     55.22000000    67.73000000     2.60000000
   C     55.64000000    68.87000000     3.52000000
   O     55.09000000    69.11000000     4.59000000
   H     53.95000000    66.43000000     3.59000000
   H     55.25000000    68.12000000     1.58000000
   H     55.98000000    66.95000000     2.52000000
   N     56.78000000    69.50000000     3.25000000
   C     57.57000000    69.41000000     2.03000000
   C     59.09000000    69.47000000     2.12000000
   O     59.74000000    69.59000000     1.09000000
   C     57.17000000    70.55000000     1.10000000
   C     55.76000000    70.53000000     0.51000000
   O     57.36000000    71.80000000     1.73000000
   H     57.17000000    70.04000000     4.01000000
   H     57.36000000    68.52000000     1.44000000
   H     57.84000000    70.57000000     0.23000000
   H     57.41000000    72.41000000     0.98000000
   H     55.46000000    69.72000000    -0.15000000
   H     55.08000000    70.64000000     1.36000000
   H     55.65000000    71.39000000    -0.15000000
   N     59.54000000    69.52000000     3.38000000
   C     60.93000000    69.63000000     3.75000000
   C     61.61000000    70.85000000     3.12000000
   O     62.26000000    70.72000000     2.09000000
   C     61.74000000    68.38000000     3.41000000
   C     61.02000000    67.08000000     3.74000000
   C     63.02000000    68.46000000     4.25000000
   C     61.86000000    65.81000000     3.73000000
   H     58.86000000    69.39000000     4.11000000
   H     61.11000000    69.70000000     4.82000000
   H     62.00000000    68.43000000     2.35000000
   H     60.22000000    66.94000000     3.01000000
   H     60.55000000    67.25000000     4.71000000
   H     63.76000000    67.74000000     3.91000000
   H     63.52000000    69.41000000     4.07000000
   H     62.79000000    68.33000000     5.31000000
   H     62.28000000    65.64000000     2.74000000
   H     62.50000000    65.74000000     4.61000000
   H     61.18000000    64.96000000     3.81000000
   N     61.56000000    72.01000000     3.77000000
   C     60.75000000    72.32000000     4.93000000
   C     61.48000000    72.39000000     6.27000000
   O     60.86000000    72.33000000     7.33000000
   C     59.91000000    73.54000000     4.58000000
   C     60.62000000    74.81000000     4.13000000
   O     61.85000000    74.76000000     3.92000000
   O     60.06000000    75.92000000     4.07000000
   H     62.12000000    72.78000000     3.44000000
   H     60.06000000    71.47000000     5.00000000
   H     59.29000000    73.68000000     5.47000000
   H     59.24000000    73.09000000     3.85000000
   N     62.81000000    72.44000000     6.21000000
   C     63.74000000    72.37000000     7.33000000
   C     63.70000000    73.64000000     8.18000000
   O     63.39000000    74.68000000     7.60000000
   C     65.14000000    72.10000000     6.79000000
   C     65.79000000    73.16000000     5.93000000
   C     65.81000000    72.98000000     4.54000000
   C     66.27000000    74.35000000     6.49000000
   C     66.29000000    74.04000000     3.76000000
   C     66.90000000    75.32000000     5.70000000
   C     66.98000000    75.12000000     4.32000000
   H     63.16000000    72.77000000     5.32000000
   H     63.39000000    71.53000000     7.93000000
   H     65.09000000    71.15000000     6.27000000
   H     65.76000000    72.10000000     7.69000000
   H     65.39000000    72.15000000     3.99000000
   H     66.15000000    74.50000000     7.55000000
   H     66.32000000    73.94000000     2.69000000
   H     67.23000000    76.24000000     6.17000000
   H     67.44000000    75.84000000     3.65000000
   N     64.14000000    73.66000000     9.44000000
   C     64.96000000    72.71000000    10.17000000
   C     64.28000000    71.36000000    10.33000000
   O     63.05000000    71.31000000    10.25000000
   C     65.18000000    73.36000000    11.53000000
   C     64.81000000    74.83000000    11.37000000
   C     63.82000000    74.84000000    10.22000000
   H     65.94000000    72.64000000     9.69000000
   H     64.53000000    72.77000000    12.17000000
   H     66.16000000    73.18000000    11.98000000
   H     64.33000000    75.24000000    12.26000000
   H     65.65000000    75.52000000    11.27000000
   H     62.81000000    74.79000000    10.62000000
   H     63.94000000    75.76000000     9.64000000
   N     65.08000000    70.36000000    10.70000000
   C     64.71000000    69.01000000    11.05000000
   C     65.68000000    67.86000000    10.83000000
   O     65.92000000    67.03000000    11.70000000
   C     64.04000000    69.02000000    12.42000000
   C     64.91000000    69.47000000    13.59000000
   C     64.28000000    69.38000000    14.97000000
   O     63.74000000    70.37000000    15.52000000
   O     64.31000000    68.23000000    15.46000000
   H     66.08000000    70.53000000    10.69000000
   H     63.87000000    68.79000000    10.39000000
   H     63.84000000    67.96000000    12.61000000
   H     63.22000000    69.74000000    12.42000000
   H     65.19000000    70.51000000    13.42000000
   H     65.77000000    68.79000000    13.52000000
   N     66.38000000    67.77000000     9.69000000
   C     66.35000000    68.60000000     8.51000000
   H     66.40900000    69.64800000     8.80200000
   H     67.19800000    68.35400000     7.87000000
   H     65.42100000    68.42600000     7.96600000
   H     67.02000000    66.99000000     9.80000000
  Ca     53.88000000    68.26000000     6.87000000
   O     56.55000000    68.48000000     7.16000000
   H     57.20000000    69.04000000     6.74000000
   H     56.93000000    68.28000000     8.02000000
   O     53.63000000    70.86000000     6.39000000
   H     54.24000000    71.52000000     6.72000000
   H     52.77000000    71.28000000     6.43000000
   O     54.24000000    69.68000000     9.06000000
   H     54.79000000    69.50000000     9.83000000
   H     53.38000000    69.86000000     9.42000000

Ca 1.00



