%chk=loop1.apoCaM-CA-Ng.Init293.run28.water4.chk
%nprocshared=20
%mem=10GB
%nosave
#b3lyp/svp scf=(tight,noincore,xqc) Test 
#IOP(5/87=12) Density=Current Pop=(MK,readradii) iop(6/33=2) iop(6/42=6)

loop1.apoCaM-CA-Ng.Init293.run28.water4 

   0  1 
   C     37.31000000   -11.98000000    36.67000000
   C     38.06000000   -13.20000000    37.18000000
   O     38.46000000   -14.06000000    36.40000000
   H     36.37800000   -11.86900000    37.22500000
   H     37.92400000   -11.09000000    36.81000000
   H     37.08800000   -12.10600000    35.61000000
   N     38.34000000   -13.19000000    38.48000000
   C     39.07000000   -14.19000000    39.24000000
   C     38.23000000   -15.19000000    40.02000000
   O     38.68000000   -15.79000000    40.99000000
   C     40.26000000   -13.52000000    39.91000000
   C     40.02000000   -12.48000000    40.99000000
   O     40.91000000   -12.20000000    41.82000000
   O     39.03000000   -11.71000000    40.97000000
   H     37.93000000   -12.43000000    39.01000000
   H     39.54000000   -14.82000000    38.48000000
   H     40.74000000   -12.98000000    39.09000000
   H     40.93000000   -14.28000000    40.32000000
   N     37.01000000   -15.47000000    39.55000000
   C     36.09000000   -16.44000000    40.10000000
   C     35.33000000   -17.28000000    39.08000000
   O     34.29000000   -16.83000000    38.60000000
   C     35.12000000   -15.69000000    41.01000000
   C     35.68000000   -15.19000000    42.33000000
   C     34.58000000   -14.78000000    43.30000000
   C     35.04000000   -14.38000000    44.70000000
   N     35.88000000   -13.18000000    44.76000000
   H     36.66000000   -14.87000000    38.81000000
   H     36.62000000   -17.18000000    40.70000000
   H     34.28000000   -16.33000000    41.29000000
   H     34.68000000   -14.80000000    40.56000000
   H     36.32000000   -14.31000000    42.29000000
   H     36.34000000   -15.94000000    42.78000000
   H     33.83000000   -15.54000000    43.51000000
   H     34.19000000   -13.82000000    42.95000000
   H     35.53000000   -15.26000000    45.11000000
   H     34.19000000   -14.26000000    45.37000000
   H     35.98000000   -12.94000000    45.74000000
   H     36.81000000   -13.26000000    44.37000000
   H     35.49000000   -12.41000000    44.23000000
   N     35.80000000   -18.43000000    38.59000000
   C     36.88000000   -19.31000000    38.97000000
   C     36.85000000   -19.89000000    40.38000000
   O     36.01000000   -19.48000000    41.18000000
   C     38.22000000   -18.66000000    38.64000000
   C     38.39000000   -18.10000000    37.24000000
   O     39.43000000   -17.42000000    37.10000000
   O     37.73000000   -18.36000000    36.21000000
   H     35.28000000   -18.82000000    37.81000000
   H     36.83000000   -20.14000000    38.26000000
   H     38.98000000   -19.43000000    38.79000000
   H     38.49000000   -18.00000000    39.46000000
   N     37.70000000   -20.78000000    40.89000000
   C     38.55000000   -21.72000000    40.18000000
   C     39.75000000   -22.16000000    41.00000000
   O     39.49000000   -22.89000000    41.96000000
   H     37.53000000   -20.93000000    41.87000000
   H     38.78000000   -21.32000000    39.19000000
   H     37.89000000   -22.57000000    40.00000000
   N     41.01000000   -21.86000000    40.72000000
   C     41.53000000   -21.18000000    39.54000000
   C     41.41000000   -19.68000000    39.74000000
   O     41.48000000   -18.98000000    38.73000000
   C     42.93000000   -21.62000000    39.12000000
   C     43.93000000   -21.65000000    40.28000000
   O     43.58000000   -21.62000000    41.48000000
   O     45.12000000   -21.47000000    39.98000000
   H     41.65000000   -21.98000000    41.49000000
   H     40.86000000   -21.53000000    38.75000000
   H     43.21000000   -20.88000000    38.37000000
   H     42.83000000   -22.58000000    38.63000000
   N     41.32000000   -19.18000000    40.98000000
   C     41.23000000   -17.77000000    41.30000000
   C     42.50000000   -16.98000000    41.00000000
   O     42.66000000   -15.86000000    41.48000000
   H     41.30000000   -19.77000000    41.80000000
   H     41.04000000   -17.65000000    42.36000000
   H     40.44000000   -17.28000000    40.74000000
   N     43.43000000   -17.55000000    40.23000000
   C     44.61000000   -16.94000000    39.66000000
   C     44.23000000   -16.08000000    38.47000000
   O     43.31000000   -16.35000000    37.70000000
   C     45.63000000   -18.04000000    39.36000000
   C     46.96000000   -17.55000000    38.79000000
   O     45.17000000   -19.00000000    38.44000000
   H     43.39000000   -18.53000000    39.98000000
   H     45.10000000   -16.32000000    40.42000000
   H     45.89000000   -18.41000000    40.35000000
   H     45.49000000   -19.86000000    38.74000000
   H     46.90000000   -17.52000000    37.71000000
   H     47.14000000   -16.54000000    39.15000000
   H     47.76000000   -18.22000000    39.12000000
   N     44.94000000   -14.96000000    38.28000000
   C     44.78000000   -13.96000000    37.25000000
   C     46.03000000   -13.19000000    36.87000000
   O     46.50000000   -12.34000000    37.62000000
   C     43.59000000   -13.05000000    37.57000000
   C     43.39000000   -12.02000000    36.47000000
   C     43.66000000   -12.39000000    38.95000000
   C     42.01000000   -11.37000000    36.41000000
   H     45.70000000   -14.87000000    38.94000000
   H     44.50000000   -14.59000000    36.41000000
   H     42.71000000   -13.71000000    37.56000000
   H     43.57000000   -12.56000000    35.54000000
   H     44.19000000   -11.29000000    36.59000000
   H     43.98000000   -13.10000000    39.70000000
   H     44.46000000   -11.65000000    39.04000000
   H     42.72000000   -11.98000000    39.32000000
   H     41.13000000   -12.01000000    36.49000000
   H     41.90000000   -10.62000000    37.19000000
   H     41.93000000   -10.95000000    35.41000000
   N     46.59000000   -13.51000000    35.70000000
   C     47.81000000   -13.10000000    35.02000000
   C     47.67000000   -13.13000000    33.51000000
   O     48.62000000   -12.72000000    32.84000000
   C     49.05000000   -13.84000000    35.51000000
   C     49.06000000   -15.33000000    35.20000000
   O     49.24000000   -13.82000000    36.91000000
   H     45.94000000   -14.04000000    35.13000000
   H     47.84000000   -12.03000000    35.20000000
   H     49.94000000   -13.44000000    35.03000000
   H     49.30000000   -12.92000000    37.22000000
   H     49.14000000   -15.56000000    34.14000000
   H     49.94000000   -15.81000000    35.64000000
   H     48.19000000   -15.85000000    35.62000000
   N     46.52000000   -13.55000000    32.97000000
   C     46.21000000   -13.81000000    31.58000000
   C     47.04000000   -14.96000000    31.02000000
   O     48.17000000   -15.25000000    31.41000000
   C     46.31000000   -12.57000000    30.69000000
   C     45.43000000   -11.40000000    31.11000000
   O     45.89000000   -13.09000000    29.46000000
   H     45.85000000   -13.92000000    33.62000000
   H     45.20000000   -14.22000000    31.54000000
   H     47.35000000   -12.25000000    30.77000000
   H     45.58000000   -12.31000000    28.99000000
   H     45.51000000   -11.17000000    32.17000000
   H     45.73000000   -10.56000000    30.48000000
   H     44.37000000   -11.62000000    30.98000000
   N     46.53000000   -15.70000000    30.03000000
   C     47.19000000   -16.75000000    29.27000000
   C     46.51000000   -18.10000000    29.09000000
   O     47.23000000   -19.02000000    28.70000000
   C     47.62000000   -16.23000000    27.90000000
   C     48.81000000   -15.28000000    27.86000000
   C     49.15000000   -14.78000000    26.45000000
   C     50.43000000   -13.96000000    26.43000000
   N     50.78000000   -13.45000000    25.09000000
   H     45.63000000   -15.34000000    29.74000000
   H     48.04000000   -17.03000000    29.88000000
   H     46.73000000   -15.75000000    27.49000000
   H     47.82000000   -17.03000000    27.18000000
   H     49.69000000   -15.83000000    28.19000000
   H     48.75000000   -14.46000000    28.56000000
   H     48.30000000   -14.20000000    26.08000000
   H     49.36000000   -15.57000000    25.73000000
   H     51.17000000   -14.73000000    26.66000000
   H     50.46000000   -13.17000000    27.17000000
   H     50.07000000   -12.77000000    24.84000000
   H     51.73000000   -13.13000000    24.98000000
   H     50.69000000   -14.15000000    24.37000000
   N     45.24000000   -18.44000000    29.30000000
   C     44.12000000   -17.60000000    29.66000000
   C     43.95000000   -16.36000000    28.80000000
   O     43.90000000   -15.27000000    29.35000000
   C     44.03000000   -17.45000000    31.18000000
   C     42.69000000   -16.93000000    31.69000000
   C     42.59000000   -17.38000000    33.14000000
   O     43.07000000   -16.65000000    34.04000000
   O     42.24000000   -18.53000000    33.48000000
   H     45.10000000   -19.44000000    29.33000000
   H     43.30000000   -18.25000000    29.36000000
   H     44.82000000   -16.79000000    31.55000000
   H     44.30000000   -18.39000000    31.65000000
   H     41.88000000   -17.43000000    31.14000000
   H     42.62000000   -15.85000000    31.56000000
   N     44.17000000   -16.41000000    27.48000000
   C     43.59000000   -15.50000000    26.51000000
   H     42.68100000   -15.06100000    26.92200000
   H     44.30400000   -14.70900000    26.28100000
   H     43.34800000   -16.04600000    25.59800000
   H     44.25000000   -17.35000000    27.12000000
  Ca     41.75000000   -17.89000000    36.02000000
   O     43.76000000   -19.59000000    36.12000000
   H     44.34000000   -19.38000000    36.85000000
   H     44.07000000   -20.44000000    35.81000000
   O     40.96000000   -15.36000000    35.83000000
   H     40.09000000   -15.23000000    36.19000000
   H     41.21000000   -14.50000000    35.48000000
   O     39.64000000   -17.93000000    34.16000000
   H     38.87000000   -18.00000000    34.72000000
   H     39.29000000   -17.97000000    33.27000000
   O     40.70000000   -20.38000000    35.62000000
   H     40.89000000   -20.88000000    34.83000000
   H     39.92000000   -20.80000000    36.00000000

Ca 1.00



