%chk=loop1.holoCaM-CaMKII.run70.water2.chk
%nprocshared=20
%mem=10GB
%nosave
#b3lyp/svp scf=(tight,noincore,xqc) Test 
#IOP(5/87=12) Density=Current Pop=(MK,readradii) iop(6/33=2) iop(6/42=6)

loop1.holoCaM-CaMKII.run70.water2 

   0  1 
   C     13.32000000    46.67000000    -7.09700000
   C     12.32000000    46.83000000    -8.22700000
   O     11.17000000    46.41000000    -8.12700000
   H     14.18800000    47.30200000    -7.28800000
   H     12.85600000    46.96600000    -6.15600000
   H     13.63600000    45.62900000    -7.03500000
   N     12.77000000    47.38000000    -9.36700000
   C     11.95000000    47.82000000   -10.47700000
   C     11.40000000    46.66000000   -11.28700000
   O     12.16000000    46.12000000   -12.09700000
   C     12.73000000    48.79000000   -11.36700000
   C     11.89000000    49.46000000   -12.44700000
   O     12.56000000    50.08000000   -13.29700000
   O     10.65000000    49.33000000   -12.43700000
   H     13.69000000    47.78000000    -9.38700000
   H     11.05000000    48.34000000   -10.16700000
   H     13.62000000    48.33000000   -11.78700000
   H     13.06000000    49.63000000   -10.73700000
   N     10.30000000    46.07000000   -10.83700000
   C      9.76000000    44.85000000   -11.40700000
   C      9.30000000    45.14000000   -12.82700000
   O      9.71000000    44.39000000   -13.70700000
   C      8.68000000    44.31000000   -10.46700000
   C      9.14000000    43.73000000    -9.13700000
   C     10.04000000    42.52000000    -9.33700000
   C     10.46000000    41.66000000    -8.13700000
   N     11.35000000    42.40000000    -7.23700000
   H      9.66000000    46.71000000   -10.37700000
   H     10.52000000    44.07000000   -11.40700000
   H      8.11000000    43.54000000   -10.98700000
   H      7.98000000    45.08000000   -10.15700000
   H      8.26000000    43.52000000    -8.53700000
   H      9.73000000    44.48000000    -8.60700000
   H     10.99000000    42.87000000    -9.73700000
   H      9.47000000    41.89000000   -10.01700000
   H     11.03000000    40.82000000    -8.53700000
   H      9.53000000    41.34000000    -7.67700000
   H     12.00000000    42.89000000    -7.82700000
   H     10.84000000    43.09000000    -6.69700000
   H     11.91000000    41.74000000    -6.72700000
   N      8.44000000    46.14000000   -13.07700000
   C      8.02000000    46.43000000   -14.42700000
   C      8.94000000    47.13000000   -15.41700000
   O      8.74000000    46.98000000   -16.61700000
   C      6.59000000    46.97000000   -14.45700000
   C      6.42000000    48.30000000   -13.74700000
   O      7.32000000    48.67000000   -12.96700000
   O      5.38000000    48.95000000   -13.97700000
   H      7.98000000    46.60000000   -12.30700000
   H      7.94000000    45.44000000   -14.87700000
   H      6.01000000    46.23000000   -13.90700000
   H      6.26000000    47.08000000   -15.49700000
   N      9.95000000    47.85000000   -14.92700000
   C     11.00000000    48.43000000   -15.74700000
   C     10.51000000    49.71000000   -16.39700000
   O      9.87000000    49.74000000   -17.44700000
   H     10.01000000    48.05000000   -13.93700000
   H     11.21000000    47.74000000   -16.56700000
   H     11.88000000    48.64000000   -15.14700000
   N     10.94000000    50.82000000   -15.78700000
   C     10.74000000    52.19000000   -16.22700000
   C     11.78000000    53.07000000   -15.53700000
   O     11.85000000    54.25000000   -15.86700000
   C      9.31000000    52.52000000   -15.82700000
   C      8.96000000    52.20000000   -14.37700000
   O      7.81000000    51.80000000   -14.08700000
   O      9.79000000    52.31000000   -13.44700000
   H     11.46000000    50.59000000   -14.94700000
   H     10.75000000    52.23000000   -17.30700000
   H      8.66000000    51.93000000   -16.46700000
   H      9.11000000    53.58000000   -16.00700000
   N     12.67000000    52.61000000   -14.66700000
   C     13.63000000    53.40000000   -13.91700000
   C     13.06000000    54.12000000   -12.70700000
   O     13.46000000    55.26000000   -12.45700000
   H     12.59000000    51.63000000   -14.42700000
   H     13.94000000    54.19000000   -14.60700000
   H     14.42000000    52.72000000   -13.61700000
   N     12.00000000    53.59000000   -12.10700000
   C     11.29000000    54.34000000   -11.08700000
   C     10.72000000    53.28000000   -10.15700000
   O     10.01000000    52.38000000   -10.59700000
   C     10.16000000    55.29000000   -11.46700000
   C     10.68000000    56.71000000   -11.68700000
   O      9.71000000    54.86000000   -12.72700000
   H     11.59000000    52.76000000   -12.50700000
   H     11.92000000    54.97000000   -10.44700000
   H      9.41000000    55.23000000   -10.67700000
   H      9.98000000    53.94000000   -12.82700000
   H     10.93000000    57.03000000   -10.66700000
   H     11.43000000    56.74000000   -12.47700000
   H      9.79000000    57.21000000   -12.05700000
   N     10.87000000    53.38000000    -8.83700000
   C     10.35000000    52.39000000    -7.91700000
   C      9.04000000    52.89000000    -7.32700000
   O      9.00000000    53.94000000    -6.69700000
   C     11.38000000    52.16000000    -6.80700000
   C     12.74000000    51.71000000    -7.31700000
   C     10.85000000    51.21000000    -5.73700000
   C     13.90000000    51.76000000    -6.31700000
   H     11.34000000    54.18000000    -8.42700000
   H     10.21000000    51.46000000    -8.45700000
   H     11.46000000    53.11000000    -6.27700000
   H     13.03000000    52.38000000    -8.11700000
   H     12.67000000    50.70000000    -7.73700000
   H     10.56000000    50.28000000    -6.20700000
   H     11.60000000    51.04000000    -4.96700000
   H      9.95000000    51.61000000    -5.24700000
   H     14.81000000    52.15000000    -6.76700000
   H     13.74000000    52.55000000    -5.58700000
   H     14.08000000    50.80000000    -5.83700000
   N      7.97000000    52.10000000    -7.41700000
   C      6.68000000    52.31000000    -6.79700000
   C      6.70000000    51.81000000    -5.35700000
   O      7.63000000    51.12000000    -4.94700000
   C      5.58000000    51.57000000    -7.55700000
   C      5.60000000    52.15000000    -8.96700000
   O      5.82000000    50.18000000    -7.50700000
   H      8.02000000    51.21000000    -7.89700000
   H      6.41000000    53.36000000    -6.74700000
   H      4.64000000    51.86000000    -7.09700000
   H      6.44000000    50.07000000    -8.23700000
   H      4.66000000    51.81000000    -9.39700000
   H      5.71000000    53.23000000    -9.04700000
   H      6.36000000    51.70000000    -9.60700000
   N      5.63000000    52.10000000    -4.60700000
   C      5.45000000    51.62000000    -3.25700000
   C      5.33000000    50.10000000    -3.24700000
   O      6.05000000    49.46000000    -2.48700000
   C      4.26000000    52.25000000    -2.52700000
   C      4.78000000    53.55000000    -1.89700000
   O      3.30000000    52.56000000    -3.49700000
   H      4.91000000    52.70000000    -4.96700000
   H      6.34000000    51.88000000    -2.67700000
   H      3.79000000    51.71000000    -1.70700000
   H      2.63000000    51.88000000    -3.40700000
   H      5.60000000    53.24000000    -1.24700000
   H      5.06000000    54.36000000    -2.56700000
   H      3.96000000    54.01000000    -1.35700000
   N      4.42000000    49.52000000    -4.01700000
   C      4.21000000    48.10000000    -4.23700000
   C      5.47000000    47.37000000    -4.68700000
   O      5.60000000    46.22000000    -4.27700000
   C      2.93000000    47.81000000    -5.01700000
   C      2.24000000    46.49000000    -4.70700000
   C      0.91000000    46.34000000    -5.43700000
   C      0.32000000    44.93000000    -5.33700000
   N     -0.22000000    44.55000000    -4.02700000
   H      3.97000000    50.18000000    -4.63700000
   H      3.87000000    47.62000000    -3.31700000
   H      3.06000000    47.98000000    -6.08700000
   H      2.28000000    48.64000000    -4.72700000
   H      2.11000000    46.46000000    -3.61700000
   H      2.97000000    45.72000000    -4.97700000
   H      0.99000000    46.57000000    -6.49700000
   H      0.19000000    47.01000000    -4.96700000
   H      1.10000000    44.20000000    -5.53700000
   H     -0.42000000    44.78000000    -6.11700000
   H     -0.61000000    43.62000000    -4.08700000
   H      0.48000000    44.64000000    -3.30700000
   H     -1.01000000    45.11000000    -3.73700000
   N      6.38000000    48.01000000    -5.42700000
   C      7.66000000    47.42000000    -5.75700000
   C      8.59000000    47.41000000    -4.54700000
   O      9.25000000    46.42000000    -4.24700000
   C      8.37000000    48.22000000    -6.84700000
   C      7.81000000    47.85000000    -8.22700000
   C      8.29000000    48.73000000    -9.36700000
   O      8.67000000    48.22000000   -10.44700000
   O      8.22000000    49.97000000    -9.25700000
   H      6.20000000    48.90000000    -5.85700000
   H      7.37000000    46.46000000    -6.17700000
   H      9.45000000    48.11000000    -6.87700000
   H      8.09000000    49.25000000    -6.63700000
   H      6.72000000    47.79000000    -8.23700000
   H      8.20000000    46.85000000    -8.40700000
   N      8.66000000    48.42000000    -3.67700000
   C      9.42000000    48.39000000    -2.43700000
   H     10.31500000    49.00200000    -2.54500000
   H      8.80800000    48.78300000    -1.62500000
   H      9.70800000    47.36300000    -2.21100000
   H      8.15000000    49.28000000    -3.82700000
  Ca      8.57000000    50.55000000   -11.77700000
   O      7.49000000    53.10000000   -11.46700000
   H      7.95000000    53.65000000   -12.09700000
   H      6.71000000    53.61000000   -11.23700000
   O      5.79000000    50.43000000   -11.62700000
   H      5.27000000    49.94000000   -10.98700000
   H      5.88000000    49.83000000   -12.37700000

Ca 1.00



