%chk=loop1.holoCaM.run52.water2.chk
%nprocshared=20
%mem=10GB
%nosave
#b3lyp/svp scf=(tight,noincore,xqc) Test 
#IOP(5/87=12) Density=Current Pop=(MK,readradii) iop(6/33=2) iop(6/42=6)

loop1.holoCaM.run52.water2 

   0  1 
   C     50.99000000    75.98000000   -13.69800000
   C     49.76000000    76.11000000   -12.79800000
   O     48.88000000    75.27000000   -12.97800000
   H     51.83900000    75.64100000   -13.10500000
   H     50.78800000    75.25700000   -14.48800000
   H     51.22000000    76.94900000   -14.14100000
   N     49.71000000    77.11000000   -11.91800000
   C     48.49000000    77.34000000   -11.16800000
   C     47.51000000    77.92000000   -12.17800000
   O     47.73000000    79.04000000   -12.63800000
   C     48.76000000    78.33000000   -10.03800000
   C     47.48000000    78.82000000    -9.38800000
   O     47.56000000    79.99000000    -8.95800000
   O     46.43000000    78.15000000    -9.42800000
   H     50.50000000    77.74000000   -11.91800000
   H     48.22000000    76.37000000   -10.73800000
   H     49.34000000    79.18000000   -10.38800000
   H     49.28000000    77.83000000    -9.21800000
   N     46.32000000    77.36000000   -12.36800000
   C     45.40000000    77.76000000   -13.41800000
   C     44.21000000    78.62000000   -13.02800000
   O     43.51000000    79.12000000   -13.89800000
   C     44.88000000    76.56000000   -14.18800000
   C     45.89000000    75.74000000   -14.98800000
   C     46.86000000    76.55000000   -15.84800000
   C     47.73000000    75.58000000   -16.63800000
   N     48.86000000    76.31000000   -17.23800000
   H     46.22000000    76.43000000   -11.98800000
   H     45.94000000    78.43000000   -14.09800000
   H     44.32000000    77.06000000   -14.97800000
   H     44.19000000    75.98000000   -13.57800000
   H     45.37000000    74.99000000   -15.56800000
   H     46.44000000    75.29000000   -14.16800000
   H     47.43000000    77.25000000   -15.22800000
   H     46.21000000    77.14000000   -16.48800000
   H     47.09000000    75.00000000   -17.30800000
   H     48.20000000    74.83000000   -15.99800000
   H     49.30000000    76.87000000   -16.52800000
   H     49.48000000    75.65000000   -17.68800000
   H     48.56000000    76.92000000   -17.98800000
   N     43.92000000    78.84000000   -11.73800000
   C     42.62000000    79.29000000   -11.26800000
   C     42.79000000    80.36000000   -10.19800000
   O     41.81000000    80.91000000    -9.69800000
   C     41.66000000    78.22000000   -10.76800000
   C     42.26000000    77.30000000    -9.72800000
   O     41.69000000    76.22000000    -9.44800000
   O     43.41000000    77.53000000    -9.28800000
   H     44.53000000    78.33000000   -11.12800000
   H     42.13000000    79.79000000   -12.09800000
   H     41.33000000    77.68000000   -11.65800000
   H     40.74000000    78.68000000   -10.39800000
   N     44.02000000    80.66000000    -9.75800000
   C     44.33000000    81.94000000    -9.15800000
   C     44.19000000    81.92000000    -7.64800000
   O     44.06000000    83.02000000    -7.10800000
   H     44.78000000    80.13000000   -10.14800000
   H     43.84000000    82.78000000    -9.63800000
   H     45.41000000    82.07000000    -9.25800000
   N     44.19000000    80.73000000    -7.04800000
   C     44.38000000    80.60000000    -5.61800000
   C     45.80000000    80.84000000    -5.14800000
   O     46.01000000    81.15000000    -3.97800000
   C     43.73000000    79.31000000    -5.11800000
   C     44.31000000    78.14000000    -5.90800000
   O     43.66000000    77.11000000    -6.16800000
   O     45.42000000    78.19000000    -6.47800000
   H     44.24000000    79.87000000    -7.57800000
   H     43.81000000    81.40000000    -5.13800000
   H     42.65000000    79.42000000    -5.24800000
   H     44.06000000    79.13000000    -4.09800000
   N     46.81000000    80.76000000    -6.01800000
   C     48.21000000    80.87000000    -5.64800000
   C     48.67000000    79.67000000    -4.83800000
   O     49.71000000    79.81000000    -4.19800000
   H     46.52000000    80.44000000    -6.92800000
   H     48.39000000    81.85000000    -5.20800000
   H     48.84000000    80.81000000    -6.52800000
   N     48.04000000    78.50000000    -4.99800000
   C     48.53000000    77.18000000    -4.64800000
   C     48.57000000    76.26000000    -5.85800000
   O     47.70000000    76.34000000    -6.71800000
   C     47.93000000    76.45000000    -3.44800000
   C     48.23000000    77.05000000    -2.07800000
   O     46.52000000    76.43000000    -3.44800000
   H     47.14000000    78.57000000    -5.43800000
   H     49.58000000    77.28000000    -4.34800000
   H     48.36000000    75.44000000    -3.39800000
   H     46.18000000    76.66000000    -2.57800000
   H     47.82000000    78.05000000    -1.95800000
   H     47.84000000    76.50000000    -1.21800000
   H     49.31000000    77.09000000    -1.93800000
   N     49.50000000    75.30000000    -5.92800000
   C     49.44000000    74.18000000    -6.84800000
   C     48.64000000    73.09000000    -6.13800000
   O     48.99000000    72.66000000    -5.04800000
   C     50.80000000    73.81000000    -7.41800000
   C     51.23000000    74.87000000    -8.42800000
   C     50.87000000    72.40000000    -8.00800000
   C     52.70000000    74.80000000    -8.82800000
   H     50.30000000    75.23000000    -5.31800000
   H     48.72000000    74.38000000    -7.63800000
   H     51.50000000    73.84000000    -6.57800000
   H     51.25000000    75.82000000    -7.88800000
   H     50.56000000    74.87000000    -9.28800000
   H     50.29000000    72.27000000    -8.91800000
   H     51.92000000    72.24000000    -8.24800000
   H     50.45000000    71.67000000    -7.30800000
   H     52.90000000    75.64000000    -9.48800000
   H     53.28000000    74.96000000    -7.90800000
   H     52.95000000    73.83000000    -9.26800000
   N     47.66000000    72.57000000    -6.88800000
   C     46.83000000    71.41000000    -6.58800000
   C     47.41000000    70.18000000    -7.27800000
   O     48.23000000    70.32000000    -8.17800000
   C     45.37000000    71.68000000    -6.92800000
   C     45.09000000    71.54000000    -8.41800000
   O     44.53000000    70.71000000    -6.34800000
   H     47.38000000    73.13000000    -7.66800000
   H     46.95000000    71.22000000    -5.52800000
   H     45.20000000    72.70000000    -6.58800000
   H     44.52000000    70.69000000    -5.38800000
   H     44.02000000    71.73000000    -8.54800000
   H     45.74000000    72.08000000    -9.10800000
   H     45.22000000    70.52000000    -8.78800000
   N     46.90000000    69.00000000    -6.94800000
   C     47.40000000    67.71000000    -7.38800000
   C     47.50000000    67.65000000    -8.90800000
   O     48.57000000    67.30000000    -9.39800000
   C     46.71000000    66.44000000    -6.90800000
   C     47.45000000    65.16000000    -7.25800000
   O     46.66000000    66.39000000    -5.49800000
   H     46.11000000    69.09000000    -6.31800000
   H     48.41000000    67.63000000    -6.98800000
   H     45.71000000    66.32000000    -7.32800000
   H     46.24000000    67.21000000    -5.22800000
   H     46.81000000    64.38000000    -6.84800000
   H     47.58000000    65.10000000    -8.33800000
   H     48.40000000    65.14000000    -6.71800000
   N     46.47000000    67.98000000    -9.68800000
   C     46.37000000    68.09000000   -11.12800000
   C     47.26000000    69.12000000   -11.80800000
   O     47.74000000    68.99000000   -12.92800000
   C     44.91000000    68.22000000   -11.53800000
   C     43.99000000    67.01000000   -11.36800000
   C     42.64000000    67.17000000   -12.05800000
   C     41.74000000    66.01000000   -11.63800000
   N     41.59000000    65.85000000   -10.17800000
   H     45.62000000    68.17000000    -9.18800000
   H     46.72000000    67.17000000   -11.59800000
   H     44.91000000    68.22000000   -12.62800000
   H     44.45000000    69.14000000   -11.16800000
   H     43.80000000    67.02000000   -10.29800000
   H     44.53000000    66.11000000   -11.66800000
   H     42.81000000    67.11000000   -13.12800000
   H     42.27000000    68.18000000   -11.86800000
   H     42.18000000    65.07000000   -11.94800000
   H     40.76000000    66.15000000   -12.10800000
   H     41.37000000    66.68000000    -9.65800000
   H     40.74000000    65.38000000    -9.90800000
   H     42.39000000    65.37000000    -9.78800000
   N     47.54000000    70.19000000   -11.05800000
   C     48.37000000    71.27000000   -11.54800000
   C     49.83000000    70.84000000   -11.46800000
   O     50.62000000    71.07000000   -12.37800000
   C     48.07000000    72.57000000   -10.79800000
   C     46.74000000    73.16000000   -11.24800000
   C     46.44000000    74.40000000   -10.41800000
   O     46.92000000    74.50000000    -9.26800000
   O     45.55000000    75.18000000   -10.81800000
   H     47.18000000    70.26000000   -10.10800000
   H     48.12000000    71.44000000   -12.58800000
   H     48.87000000    73.26000000   -11.05800000
   H     48.15000000    72.39000000    -9.72800000
   H     45.94000000    72.44000000   -11.07800000
   H     46.79000000    73.46000000   -12.29800000
   N     50.18000000    70.01000000   -10.48800000
   C     51.55000000    69.55000000   -10.34800000
   H     52.18000000    70.37900000   -10.02600000
   H     51.59200000    68.75300000    -9.60500000
   H     51.90700000    69.17400000   -11.30700000
   H     49.55000000    69.87000000    -9.70800000
  Ca     45.27000000    76.25000000    -8.18800000
   O     45.38000000    74.99000000    -5.61800000
   H     45.64000000    75.65000000    -4.96800000
   H     44.86000000    74.36000000    -5.11800000
   O     43.25000000    74.21000000    -8.48800000
   H     42.78000000    75.02000000    -8.71800000
   H     42.69000000    73.79000000    -7.83800000

Ca 1.00



