%chk=holoCaM_loop3_10.0.chk
%nprocshared=48
%mem=10GB
%nosave
#b3lyp/svp scf=(tight,noincore) Test 
#IOP(5/87=12) Density=Current Pop=(MK,readradii) iop(6/33=2) iop(6/42=6)

holoCaM_loop3_10.0 

   0   1
   C     65.81000000    44.88000000    32.24000000
   C     65.77000000    43.56000000    32.99000000
   O     65.74000000    43.55000000    34.22000000
   H     66.81400000    45.29900000    32.29700000
   H     65.54600000    44.71300000    31.19600000
   H     65.10000000    45.57500000    32.68900000
   N     65.92000000    42.42000000    32.32000000
   C     66.22000000    41.11000000    32.86000000
   C     67.68000000    41.08000000    33.32000000
   O     68.56000000    41.45000000    32.54000000
   C     65.96000000    40.04000000    31.80000000
   C     66.26000000    38.60000000    32.19000000
   O     66.52000000    38.23000000    33.36000000
   O     66.08000000    37.73000000    31.31000000
   H     65.95000000    42.60000000    31.32000000
   H     65.56000000    40.87000000    33.69000000
   H     66.45000000    40.36000000    30.88000000
   H     64.89000000    40.09000000    31.60000000
   N     67.86000000    40.71000000    34.59000000
   C     69.08000000    41.01000000    35.30000000
   C     70.09000000    39.86000000    35.32000000
   O     71.29000000    40.12000000    35.27000000
   C     68.77000000    41.38000000    36.75000000
   C     69.90000000    42.17000000    37.42000000
   C     70.18000000    43.59000000    36.95000000
   C     70.22000000    44.63000000    38.06000000
   N     71.48000000    44.62000000    38.81000000
   H     67.11000000    40.23000000    35.07000000
   H     69.62000000    41.83000000    34.83000000
   H     68.51000000    40.47000000    37.30000000
   H     67.88000000    41.99000000    36.79000000
   H     70.78000000    41.58000000    37.18000000
   H     69.78000000    42.09000000    38.50000000
   H     69.43000000    43.80000000    36.19000000
   H     71.15000000    43.61000000    36.44000000
   H     69.40000000    44.58000000    38.77000000
   H     70.13000000    45.56000000    37.51000000
   H     71.56000000    43.81000000    39.41000000
   H     72.23000000    44.65000000    38.13000000
   H     71.63000000    45.45000000    39.37000000
   N     69.67000000    38.60000000    35.32000000
   C     70.54000000    37.45000000    35.20000000
   C     70.57000000    36.95000000    33.76000000
   O     71.08000000    35.89000000    33.42000000
   C     70.24000000    36.43000000    36.30000000
   C     68.77000000    36.26000000    36.68000000
   O     68.38000000    36.22000000    37.86000000
   O     67.99000000    36.36000000    35.71000000
   H     68.69000000    38.37000000    35.18000000
   H     71.58000000    37.76000000    35.34000000
   H     70.79000000    36.84000000    37.14000000
   H     70.54000000    35.43000000    35.97000000
   N     69.84000000    37.67000000    32.91000000
   C     69.72000000    37.32000000    31.51000000
   C     69.00000000    36.02000000    31.16000000
   O     69.05000000    35.66000000    29.99000000
   H     69.21000000    38.36000000    33.31000000
   H     70.67000000    37.27000000    30.98000000
   H     69.12000000    38.13000000    31.09000000
   N     68.31000000    35.36000000    32.09000000
   C     67.75000000    34.03000000    31.98000000
   C     66.47000000    33.88000000    31.16000000
   O     66.14000000    32.76000000    30.77000000
   C     67.63000000    33.51000000    33.40000000
   C     66.31000000    33.91000000    34.05000000
   N     65.75000000    32.95000000    34.78000000
   O     65.81000000    35.03000000    33.94000000
   H     68.27000000    35.84000000    32.98000000
   H     68.45000000    33.35000000    31.49000000
   H     68.50000000    33.90000000    33.93000000
   H     67.76000000    32.44000000    33.55000000
   H     66.09000000    32.00000000    34.74000000
   H     64.94000000    33.14000000    35.35000000
   N     65.97000000    34.97000000    30.58000000
   C     64.81000000    34.92000000    29.71000000
   C     63.50000000    34.95000000    30.49000000
   O     62.48000000    34.45000000    30.02000000
   H     66.36000000    35.86000000    30.85000000
   H     64.86000000    33.98000000    29.16000000
   H     64.86000000    35.76000000    29.03000000
   N     63.40000000    35.53000000    31.69000000
   C     62.22000000    35.75000000    32.50000000
   C     62.30000000    37.05000000    33.29000000
   O     63.33000000    37.56000000    33.71000000
   C     62.15000000    34.61000000    33.50000000
   C     62.17000000    33.24000000    32.86000000
   C     63.36000000    32.52000000    32.77000000
   C     60.96000000    32.63000000    32.51000000
   C     63.34000000    31.21000000    32.27000000
   C     60.91000000    31.33000000    31.99000000
   C     62.11000000    30.59000000    31.98000000
   O     62.08000000    29.25000000    31.71000000
   H     64.27000000    35.92000000    32.04000000
   H     61.37000000    35.88000000    31.83000000
   H     61.22000000    34.69000000    34.07000000
   H     63.00000000    34.60000000    34.18000000
   H     64.31000000    33.00000000    32.95000000
   H     60.06000000    33.22000000    32.51000000
   H     64.24000000    30.62000000    32.20000000
   H     59.99000000    30.83000000    31.70000000
   H     61.21000000    28.94000000    31.46000000
   N     61.15000000    37.59000000    33.71000000
   C     61.02000000    38.81000000    34.49000000
   C     60.40000000    38.51000000    35.85000000
   O     59.41000000    37.78000000    35.87000000
   C     60.35000000    39.90000000    33.66000000
   C     61.31000000    40.46000000    32.61000000
   C     60.03000000    41.05000000    34.62000000
   C     62.61000000    41.13000000    33.03000000
   H     60.35000000    37.00000000    33.53000000
   H     61.99000000    39.25000000    34.72000000
   H     59.43000000    39.54000000    33.20000000
   H     60.82000000    41.23000000    32.01000000
   H     61.66000000    39.60000000    32.03000000
   H     59.25000000    40.77000000    35.33000000
   H     60.89000000    41.44000000    35.17000000
   H     59.67000000    41.82000000    33.95000000
   H     63.17000000    40.49000000    33.72000000
   H     63.25000000    41.20000000    32.15000000
   H     62.45000000    42.15000000    33.35000000
   N     60.98000000    39.03000000    36.93000000
   C     60.43000000    39.05000000    38.28000000
   C     59.95000000    40.45000000    38.64000000
   O     60.08000000    41.41000000    37.89000000
   C     61.55000000    38.67000000    39.25000000
   O     62.15000000    37.46000000    38.84000000
   H     61.84000000    39.53000000    36.77000000
   H     59.60000000    38.35000000    38.40000000
   H     61.14000000    38.53000000    40.25000000
   H     62.25000000    39.49000000    39.33000000
   H     62.46000000    37.78000000    38.00000000
   N     59.30000000    40.61000000    39.79000000
   C     58.88000000    41.87000000    40.38000000
   C     59.93000000    42.98000000    40.41000000
   O     59.67000000    44.05000000    39.85000000
   C     58.18000000    41.86000000    41.74000000
   H     59.28000000    39.76000000    40.34000000
   H     58.13000000    42.11000000    39.63000000
   H     58.78000000    41.45000000    42.55000000
   H     57.74000000    42.80000000    42.06000000
   H     57.35000000    41.16000000    41.64000000
   N     61.10000000    42.72000000    40.99000000
   C     62.31000000    43.50000000    40.97000000
   C     62.78000000    43.90000000    39.57000000
   O     63.29000000    45.01000000    39.43000000
   C     63.39000000    42.64000000    41.62000000
   H     61.06000000    41.84000000    41.49000000
   H     62.12000000    44.39000000    41.57000000
   H     63.15000000    42.66000000    42.68000000
   H     63.47000000    41.62000000    41.24000000
   H     64.34000000    43.15000000    41.47000000
   N     62.62000000    43.09000000    38.53000000
   C     63.05000000    43.37000000    37.17000000
   C     61.93000000    44.14000000    36.48000000
   O     62.27000000    44.98000000    35.65000000
   C     63.34000000    42.02000000    36.51000000
   C     64.60000000    41.33000000    37.03000000
   C     64.77000000    39.95000000    36.42000000
   O     65.91000000    39.62000000    36.04000000
   O     63.86000000    39.09000000    36.41000000
   H     62.22000000    42.17000000    38.66000000
   H     63.99000000    43.92000000    37.12000000
   H     63.51000000    42.12000000    35.44000000
   H     62.51000000    41.34000000    36.70000000
   H     64.48000000    41.08000000    38.09000000
   H     65.39000000    42.05000000    36.84000000
   N     60.67000000    44.05000000    36.92000000
   C     59.51000000    44.67000000    36.32000000
   H     58.71300000    44.74000000    37.06000000
   H     59.77100000    45.66900000    35.97200000
   H     59.17100000    44.06800000    35.47700000
   H     60.55000000    43.41000000    37.69000000
  Ca     65.56000000    37.25000000    35.43000000
   O     63.73000000    35.65000000    36.56000000
   H     63.63000000    36.02000000    37.44000000
   H     63.16000000    34.89000000    36.56000000

Ca 1.70



