%chk=holoCaM_loop3_4.0.chk
%nprocshared=48
%mem=10GB
%nosave
#b3lyp/svp scf=(tight,noincore) Test 
#IOP(5/87=12) Density=Current Pop=(MK,readradii) iop(6/33=2) iop(6/42=6)

holoCaM_loop3_4.0 

   0   1
   C     42.22000000    42.33000000    24.90000000
   C     42.31000000    42.08000000    26.40000000
   O     41.80000000    42.87000000    27.20000000
   H     41.84900000    43.33900000    24.72200000
   H     43.20800000    42.22300000    24.45300000
   H     41.53700000    41.60800000    24.45100000
   N     43.07000000    41.07000000    26.83000000
   C     43.63000000    41.05000000    28.17000000
   C     44.56000000    42.23000000    28.38000000
   O     45.49000000    42.39000000    27.58000000
   C     44.23000000    39.67000000    28.42000000
   C     44.94000000    39.50000000    29.76000000
   O     45.12000000    40.48000000    30.51000000
   O     45.20000000    38.38000000    30.25000000
   H     43.50000000    40.38000000    26.23000000
   H     42.92000000    41.20000000    28.98000000
   H     44.97000000    39.44000000    27.65000000
   H     43.35000000    39.04000000    28.32000000
   N     44.40000000    43.06000000    29.41000000
   C     45.11000000    44.29000000    29.70000000
   C     46.53000000    44.06000000    30.20000000
   O     47.45000000    44.69000000    29.68000000
   C     44.19000000    45.08000000    30.62000000
   C     44.89000000    46.34000000    31.12000000
   C     43.96000000    47.42000000    31.65000000
   C     44.73000000    48.58000000    32.28000000
   N     45.44000000    48.14000000    33.49000000
   H     43.75000000    42.74000000    30.11000000
   H     45.21000000    44.85000000    28.77000000
   H     43.87000000    44.48000000    31.47000000
   H     43.32000000    45.46000000    30.07000000
   H     45.43000000    46.78000000    30.28000000
   H     45.59000000    46.12000000    31.93000000
   H     43.20000000    47.00000000    32.30000000
   H     43.44000000    47.77000000    30.76000000
   H     44.02000000    49.38000000    32.51000000
   H     45.37000000    48.94000000    31.48000000
   H     46.25000000    47.57000000    33.30000000
   H     45.72000000    48.92000000    34.07000000
   H     44.86000000    47.61000000    34.13000000
   N     46.62000000    43.20000000    31.21000000
   C     47.92000000    42.85000000    31.75000000
   C     48.64000000    41.79000000    30.93000000
   O     49.86000000    41.62000000    31.03000000
   C     47.78000000    42.36000000    33.19000000
   C     46.69000000    41.34000000    33.47000000
   O     45.61000000    41.74000000    33.94000000
   O     46.93000000    40.15000000    33.16000000
   H     45.73000000    42.86000000    31.56000000
   H     48.55000000    43.74000000    31.76000000
   H     47.50000000    43.19000000    33.84000000
   H     48.74000000    42.04000000    33.57000000
   N     47.93000000    41.13000000    30.02000000
   C     48.42000000    40.09000000    29.13000000
   C     48.80000000    38.77000000    29.77000000
   O     49.66000000    38.09000000    29.21000000
   H     46.94000000    41.31000000    30.09000000
   H     49.27000000    40.50000000    28.59000000
   H     47.74000000    39.92000000    28.30000000
   N     48.36000000    38.45000000    30.99000000
   C     48.60000000    37.10000000    31.46000000
   C     47.95000000    35.96000000    30.69000000
   O     48.68000000    35.00000000    30.45000000
   C     48.29000000    37.10000000    32.95000000
   C     46.84000000    36.78000000    33.26000000
   N     46.62000000    35.85000000    34.20000000
   O     45.85000000    37.34000000    32.80000000
   H     47.88000000    39.14000000    31.55000000
   H     49.67000000    36.89000000    31.36000000
   H     48.61000000    38.02000000    33.45000000
   H     48.82000000    36.27000000    33.41000000
   H     47.37000000    35.38000000    34.69000000
   H     45.69000000    35.84000000    34.61000000
   N     46.76000000    36.14000000    30.12000000
   C     46.07000000    35.13000000    29.34000000
   C     44.66000000    34.91000000    29.86000000
   O     44.16000000    33.82000000    29.60000000
   H     46.34000000    37.05000000    30.00000000
   H     46.69000000    34.23000000    29.28000000
   H     45.98000000    35.58000000    28.35000000
   N     44.09000000    35.77000000    30.71000000
   C     42.70000000    35.58000000    31.10000000
   C     41.92000000    36.88000000    31.13000000
   O     42.52000000    37.82000000    31.65000000
   C     42.70000000    35.07000000    32.54000000
   C     43.31000000    33.74000000    32.92000000
   C     44.69000000    33.52000000    32.91000000
   C     42.43000000    32.76000000    33.41000000
   C     45.21000000    32.37000000    33.53000000
   C     42.98000000    31.59000000    33.95000000
   C     44.37000000    31.36000000    34.02000000
   O     44.95000000    30.20000000    34.45000000
   H     44.50000000    36.69000000    30.77000000
   H     42.23000000    34.84000000    30.46000000
   H     41.66000000    35.06000000    32.84000000
   H     43.10000000    35.88000000    33.15000000
   H     45.36000000    34.28000000    32.53000000
   H     41.37000000    32.92000000    33.40000000
   H     46.29000000    32.33000000    33.62000000
   H     42.31000000    30.86000000    34.36000000
   H     44.32000000    29.57000000    34.81000000
   N     40.67000000    36.95000000    30.67000000
   C     39.80000000    38.10000000    30.65000000
   C     38.66000000    38.07000000    31.66000000
   O     37.96000000    37.10000000    31.96000000
   C     39.32000000    38.28000000    29.21000000
   C     40.42000000    39.03000000    28.46000000
   C     37.92000000    38.85000000    29.00000000
   C     40.13000000    39.42000000    27.01000000
   H     40.29000000    36.05000000    30.40000000
   H     40.35000000    39.00000000    30.92000000
   H     39.21000000    37.32000000    28.71000000
   H     41.35000000    38.47000000    28.50000000
   H     40.59000000    39.97000000    28.99000000
   H     37.68000000    38.88000000    27.94000000
   H     37.21000000    38.20000000    29.50000000
   H     37.87000000    39.84000000    29.46000000
   H     41.04000000    39.53000000    26.42000000
   H     39.44000000    38.70000000    26.58000000
   H     39.66000000    40.41000000    27.01000000
   N     38.54000000    39.14000000    32.44000000
   C     37.57000000    39.46000000    33.47000000
   C     36.81000000    40.75000000    33.18000000
   O     37.19000000    41.54000000    32.32000000
   C     38.34000000    39.62000000    34.78000000
   O     38.92000000    40.90000000    34.76000000
   H     39.29000000    39.82000000    32.49000000
   H     36.86000000    38.64000000    33.56000000
   H     39.13000000    38.88000000    34.88000000
   H     37.65000000    39.59000000    35.63000000
   H     39.64000000    40.94000000    34.11000000
   N     35.81000000    41.07000000    34.01000000
   C     34.91000000    42.20000000    33.93000000
   C     35.59000000    43.52000000    33.60000000
   O     35.12000000    44.20000000    32.70000000
   C     34.22000000    42.20000000    35.29000000
   H     35.56000000    40.30000000    34.61000000
   H     34.13000000    42.00000000    33.19000000
   H     33.75000000    43.18000000    35.37000000
   H     33.46000000    41.43000000    35.36000000
   H     34.78000000    42.09000000    36.22000000
   N     36.66000000    43.93000000    34.29000000
   C     37.39000000    45.16000000    34.06000000
   C     37.95000000    45.26000000    32.64000000
   O     38.04000000    46.36000000    32.11000000
   C     38.45000000    45.35000000    35.14000000
   H     37.08000000    43.34000000    35.00000000
   H     36.74000000    46.01000000    34.23000000
   H     38.95000000    46.32000000    35.09000000
   H     38.13000000    45.09000000    36.15000000
   H     39.15000000    44.52000000    34.99000000
   N     38.34000000    44.16000000    31.99000000
   C     38.82000000    44.12000000    30.63000000
   C     37.61000000    43.94000000    29.72000000
   O     37.57000000    44.33000000    28.56000000
   C     39.82000000    42.97000000    30.48000000
   C     41.05000000    42.91000000    31.37000000
   C     41.44000000    41.62000000    32.08000000
   O     42.47000000    40.95000000    31.87000000
   O     40.56000000    41.14000000    32.84000000
   H     38.33000000    43.28000000    32.50000000
   H     39.36000000    45.06000000    30.51000000
   H     40.19000000    43.00000000    29.45000000
   H     39.22000000    42.06000000    30.56000000
   H     40.93000000    43.65000000    32.16000000
   H     41.94000000    43.21000000    30.81000000
   N     36.53000000    43.34000000    30.23000000
   C     35.36000000    43.11000000    29.42000000
   H     34.57800000    43.81300000    29.70500000
   H     35.61100000    43.25300000    28.36900000
   H     35.00500000    42.09100000    29.57400000
   H     36.63000000    42.92000000    31.14000000
  Ca     44.39000000    39.45000000    32.68000000
   O     42.12000000    39.24000000    34.04000000
   H     41.53000000    39.84000000    33.59000000
   H     41.54000000    38.62000000    34.49000000

Ca 1.70



