%chk=holoCaM_loop3_5.0.chk
%nprocshared=48
%mem=10GB
%nosave
#b3lyp/svp scf=(tight,noincore) Test 
#IOP(5/87=12) Density=Current Pop=(MK,readradii) iop(6/33=2) iop(6/42=6)

holoCaM_loop3_5.0 

   0   1
   C     47.75000000    40.53000000    23.53000000
   C     48.40000000    39.67000000    24.60000000
   O     48.39000000    39.95000000    25.80000000
   H     46.84200000    40.98200000    23.93000000
   H     48.44200000    41.31500000    23.22400000
   H     47.49800000    39.91100000    22.66900000
   N     49.07000000    38.63000000    24.09000000
   C     49.93000000    37.80000000    24.91000000
   C     51.11000000    38.71000000    25.24000000
   O     51.83000000    39.11000000    24.33000000
   C     50.27000000    36.44000000    24.31000000
   C     51.22000000    35.59000000    25.14000000
   O     51.44000000    35.93000000    26.32000000
   O     51.43000000    34.43000000    24.71000000
   H     49.09000000    38.48000000    23.09000000
   H     49.43000000    37.57000000    25.85000000
   H     50.81000000    36.69000000    23.40000000
   H     49.33000000    35.91000000    24.15000000
   N     51.30000000    39.11000000    26.50000000
   C     52.29000000    40.13000000    26.76000000
   C     53.72000000    39.63000000    26.90000000
   O     54.65000000    40.42000000    26.99000000
   C     51.76000000    40.89000000    27.97000000
   C     50.57000000    41.79000000    27.67000000
   C     50.98000000    42.90000000    26.70000000
   C     50.01000000    44.08000000    26.69000000
   N     50.18000000    44.83000000    25.44000000
   H     50.62000000    38.84000000    27.19000000
   H     52.23000000    40.72000000    25.85000000
   H     52.47000000    41.65000000    28.31000000
   H     51.50000000    40.25000000    28.82000000
   H     50.37000000    42.28000000    28.62000000
   H     49.73000000    41.14000000    27.41000000
   H     51.09000000    42.42000000    25.73000000
   H     51.99000000    43.24000000    26.89000000
   H     50.14000000    44.68000000    27.59000000
   H     49.02000000    43.62000000    26.71000000
   H     49.26000000    45.20000000    25.22000000
   H     50.75000000    45.66000000    25.51000000
   H     50.46000000    44.31000000    24.63000000
   N     53.79000000    38.29000000    26.89000000
   C     54.97000000    37.55000000    27.28000000
   C     55.29000000    36.32000000    26.46000000
   O     56.34000000    35.70000000    26.63000000
   C     54.99000000    37.08000000    28.73000000
   C     53.72000000    36.32000000    29.10000000
   O     53.75000000    35.07000000    28.99000000
   O     52.72000000    36.97000000    29.46000000
   H     52.94000000    37.75000000    26.79000000
   H     55.86000000    38.16000000    27.16000000
   H     54.96000000    37.95000000    29.39000000
   H     55.84000000    36.46000000    29.02000000
   N     54.38000000    35.84000000    25.60000000
   C     54.73000000    34.85000000    24.61000000
   C     54.59000000    33.40000000    25.06000000
   O     55.02000000    32.50000000    24.35000000
   H     53.50000000    36.33000000    25.52000000
   H     55.80000000    35.02000000    24.50000000
   H     54.20000000    35.05000000    23.68000000
   N     53.99000000    33.19000000    26.24000000
   C     53.85000000    31.83000000    26.72000000
   C     52.85000000    31.00000000    25.93000000
   O     52.77000000    29.79000000    26.17000000
   C     53.67000000    31.64000000    28.23000000
   C     52.26000000    31.81000000    28.76000000
   N     51.70000000    31.00000000    29.67000000
   O     51.55000000    32.68000000    28.26000000
   H     53.72000000    33.99000000    26.78000000
   H     54.85000000    31.41000000    26.58000000
   H     54.34000000    32.25000000    28.84000000
   H     53.91000000    30.58000000    28.35000000
   H     52.20000000    30.23000000    30.07000000
   H     50.70000000    31.07000000    29.80000000
   N     52.10000000    31.59000000    25.00000000
   C     51.06000000    30.91000000    24.25000000
   C     49.64000000    31.28000000    24.63000000
   O     48.69000000    30.84000000    23.98000000
   H     52.12000000    32.59000000    24.94000000
   H     51.23000000    29.83000000    24.21000000
   H     51.10000000    31.28000000    23.23000000
   N     49.51000000    32.07000000    25.70000000
   C     48.30000000    32.10000000    26.49000000
   C     48.03000000    33.49000000    27.06000000
   O     48.91000000    34.22000000    27.50000000
   C     48.14000000    31.00000000    27.54000000
   C     48.44000000    29.60000000    27.06000000
   C     49.77000000    29.17000000    26.99000000
   C     47.40000000    28.73000000    26.71000000
   C     50.06000000    27.84000000    26.66000000
   C     47.68000000    27.39000000    26.41000000
   C     49.02000000    26.96000000    26.30000000
   O     49.29000000    25.66000000    25.96000000
   H     50.37000000    32.42000000    26.10000000
   H     47.42000000    31.86000000    25.88000000
   H     47.11000000    31.14000000    27.87000000
   H     48.86000000    31.18000000    28.33000000
   H     50.55000000    29.81000000    27.35000000
   H     46.38000000    29.07000000    26.61000000
   H     51.08000000    27.52000000    26.52000000
   H     46.88000000    26.71000000    26.16000000
   H     48.55000000    25.06000000    26.05000000
   N     46.75000000    33.77000000    27.33000000
   C     46.40000000    35.02000000    27.99000000
   C     45.98000000    34.69000000    29.41000000
   O     45.14000000    33.82000000    29.65000000
   C     45.35000000    35.80000000    27.20000000
   C     46.17000000    36.48000000    26.12000000
   C     44.65000000    36.86000000    28.04000000
   C     45.45000000    36.91000000    24.84000000
   H     45.99000000    33.24000000    26.94000000
   H     47.23000000    35.71000000    28.10000000
   H     44.59000000    35.09000000    26.86000000
   H     46.80000000    35.69000000    25.70000000
   H     46.82000000    37.24000000    26.55000000
   H     43.89000000    37.36000000    27.43000000
   H     44.01000000    36.37000000    28.78000000
   H     45.30000000    37.66000000    28.39000000
   H     44.72000000    37.69000000    25.06000000
   H     46.34000000    37.15000000    24.26000000
   H     44.95000000    36.09000000    24.32000000
   N     46.47000000    35.40000000    30.43000000
   C     46.01000000    35.41000000    31.80000000
   C     45.01000000    36.54000000    32.05000000
   O     44.81000000    37.39000000    31.19000000
   C     47.19000000    35.60000000    32.74000000
   O     47.92000000    36.78000000    32.49000000
   H     47.11000000    36.13000000    30.14000000
   H     45.46000000    34.48000000    31.88000000
   H     47.93000000    34.80000000    32.60000000
   H     46.97000000    35.69000000    33.81000000
   H     48.46000000    36.63000000    31.71000000
   N     44.40000000    36.57000000    33.23000000
   C     43.49000000    37.62000000    33.65000000
   C     43.99000000    39.06000000    33.65000000
   O     43.34000000    40.04000000    33.28000000
   C     42.98000000    37.23000000    35.04000000
   H     44.50000000    35.83000000    33.91000000
   H     42.61000000    37.58000000    33.01000000
   H     42.56000000    36.22000000    35.03000000
   H     43.84000000    37.15000000    35.70000000
   H     42.31000000    38.01000000    35.40000000
   N     45.25000000    39.19000000    34.06000000
   C     45.82000000    40.52000000    34.02000000
   C     46.22000000    40.96000000    32.62000000
   O     46.39000000    42.15000000    32.37000000
   C     46.92000000    40.53000000    35.07000000
   H     45.73000000    38.39000000    34.44000000
   H     45.11000000    41.29000000    34.29000000
   H     47.11000000    41.60000000    35.16000000
   H     46.59000000    40.07000000    36.01000000
   H     47.88000000    40.15000000    34.72000000
   N     46.46000000    40.01000000    31.71000000
   C     46.59000000    40.35000000    30.30000000
   C     45.30000000    40.59000000    29.54000000
   O     45.26000000    41.43000000    28.65000000
   C     47.35000000    39.20000000    29.66000000
   C     48.87000000    39.10000000    29.82000000
   C     49.22000000    37.68000000    29.42000000
   O     49.71000000    37.44000000    28.29000000
   O     49.29000000    36.79000000    30.30000000
   H     46.21000000    39.06000000    31.94000000
   H     47.19000000    41.25000000    30.18000000
   H     47.27000000    39.43000000    28.59000000
   H     46.90000000    38.26000000    29.97000000
   H     49.08000000    39.27000000    30.87000000
   H     49.38000000    39.85000000    29.21000000
   N     44.15000000    39.98000000    29.86000000
   C     42.79000000    40.37000000    29.56000000
   H     42.16600000    40.21800000    30.44100000
   H     42.76700000    41.42200000    29.27600000
   H     42.41000000    39.76300000    28.73800000
   H     44.34000000    39.08000000    30.29000000
  Ca     50.97000000    35.23000000    28.88000000
   O     51.62000000    35.03000000    31.49000000
   H     51.71000000    35.98000000    31.62000000
   H     51.40000000    34.69000000    32.35000000

Ca 1.70



