%chk=holoCaM_loop3_11.0.chk
%nprocshared=48
%mem=10GB
%nosave
#b3lyp/svp scf=(tight,noincore) Test 
#IOP(5/87=12) Density=Current Pop=(MK,readradii) iop(6/33=2) iop(6/42=6)

holoCaM_loop3_11.0 

   0   1
   C     48.12000000    39.79000000    24.41000000
   C     48.57000000    38.74000000    25.41000000
   O     48.37000000    38.87000000    26.62000000
   H     47.23000000    40.29300000    24.78800000
   H     48.91600000    40.52000000    24.26600000
   H     47.88900000    39.31100000    23.45900000
   N     49.39000000    37.76000000    25.02000000
   C     50.22000000    36.94000000    25.88000000
   C     51.53000000    37.62000000    26.23000000
   O     52.45000000    37.83000000    25.44000000
   C     50.51000000    35.64000000    25.13000000
   C     51.48000000    34.62000000    25.71000000
   O     51.76000000    34.81000000    26.91000000
   O     51.92000000    33.69000000    25.00000000
   H     49.37000000    37.62000000    24.02000000
   H     49.52000000    36.72000000    26.68000000
   H     50.91000000    35.95000000    24.17000000
   H     49.55000000    35.16000000    24.96000000
   N     51.66000000    38.02000000    27.50000000
   C     52.78000000    38.83000000    27.96000000
   C     54.10000000    38.13000000    28.21000000
   O     55.07000000    38.89000000    28.23000000
   C     52.21000000    39.50000000    29.21000000
   C     51.12000000    40.55000000    29.05000000
   C     51.70000000    41.85000000    28.48000000
   C     50.61000000    42.85000000    28.09000000
   N     51.07000000    44.11000000    27.49000000
   H     51.06000000    37.57000000    28.18000000
   H     53.04000000    39.65000000    27.29000000
   H     53.08000000    39.91000000    29.72000000
   H     51.82000000    38.72000000    29.85000000
   H     50.72000000    40.84000000    30.02000000
   H     50.28000000    40.21000000    28.45000000
   H     52.35000000    41.62000000    27.64000000
   H     52.21000000    42.38000000    29.28000000
   H     50.14000000    43.26000000    28.99000000
   H     49.93000000    42.40000000    27.37000000
   H     50.33000000    44.70000000    27.13000000
   H     51.65000000    44.64000000    28.12000000
   H     51.57000000    43.95000000    26.63000000
   N     54.18000000    36.81000000    28.44000000
   C     55.47000000    36.18000000    28.66000000
   C     55.73000000    35.10000000    27.62000000
   O     56.76000000    34.44000000    27.61000000
   C     55.34000000    35.68000000    30.09000000
   C     54.43000000    34.49000000    30.34000000
   O     54.37000000    34.06000000    31.51000000
   O     53.56000000    34.21000000    29.49000000
   H     53.40000000    36.18000000    28.33000000
   H     56.34000000    36.84000000    28.57000000
   H     55.00000000    36.52000000    30.70000000
   H     56.35000000    35.43000000    30.42000000
   N     54.96000000    35.05000000    26.52000000
   C     55.24000000    34.20000000    25.38000000
   C     55.07000000    32.70000000    25.55000000
   O     55.63000000    31.87000000    24.83000000
   H     54.13000000    35.62000000    26.52000000
   H     56.19000000    34.46000000    24.92000000
   H     54.52000000    34.51000000    24.62000000
   N     54.23000000    32.38000000    26.54000000
   C     53.99000000    31.02000000    26.96000000
   C     52.94000000    30.29000000    26.14000000
   O     52.90000000    29.06000000    26.14000000
   C     53.80000000    30.92000000    28.47000000
   C     52.33000000    31.05000000    28.86000000
   N     51.84000000    30.38000000    29.90000000
   O     51.62000000    31.90000000    28.32000000
   H     53.69000000    33.14000000    26.94000000
   H     54.92000000    30.50000000    26.70000000
   H     54.40000000    31.70000000    28.93000000
   H     54.18000000    29.97000000    28.85000000
   H     52.40000000    29.58000000    30.16000000
   H     50.84000000    30.31000000    30.02000000
   N     52.16000000    30.98000000    25.31000000
   C     51.06000000    30.42000000    24.54000000
   C     49.63000000    30.71000000    24.97000000
   O     48.69000000    30.31000000    24.28000000
   H     52.28000000    31.98000000    25.36000000
   H     51.19000000    29.34000000    24.48000000
   H     51.09000000    30.85000000    23.54000000
   N     49.45000000    31.37000000    26.12000000
   C     48.23000000    31.26000000    26.89000000
   C     47.96000000    32.63000000    27.50000000
   O     48.91000000    33.30000000    27.89000000
   C     48.39000000    30.12000000    27.88000000
   C     48.75000000    28.77000000    27.31000000
   C     50.03000000    28.22000000    27.48000000
   C     47.81000000    28.03000000    26.58000000
   C     50.45000000    27.05000000    26.84000000
   C     48.17000000    26.84000000    25.94000000
   C     49.49000000    26.38000000    26.05000000
   O     49.79000000    25.13000000    25.59000000
   H     50.27000000    31.68000000    26.61000000
   H     47.42000000    31.05000000    26.19000000
   H     47.45000000    30.00000000    28.42000000
   H     49.17000000    30.37000000    28.60000000
   H     50.81000000    28.69000000    28.07000000
   H     46.82000000    28.43000000    26.40000000
   H     51.43000000    26.61000000    26.96000000
   H     47.47000000    26.24000000    25.37000000
   H     49.17000000    24.89000000    24.90000000
   N     46.69000000    32.99000000    27.71000000
   C     46.39000000    34.26000000    28.33000000
   C     45.75000000    33.99000000    29.69000000
   O     44.89000000    33.11000000    29.80000000
   C     45.51000000    35.11000000    27.43000000
   C     46.38000000    35.47000000    26.22000000
   C     44.63000000    36.21000000    28.01000000
   C     45.53000000    36.25000000    25.22000000
   H     45.90000000    32.48000000    27.34000000
   H     47.34000000    34.76000000    28.52000000
   H     44.78000000    34.38000000    27.10000000
   H     46.69000000    34.57000000    25.69000000
   H     47.22000000    36.09000000    26.52000000
   H     43.97000000    36.66000000    27.28000000
   H     43.98000000    35.86000000    28.81000000
   H     45.36000000    36.95000000    28.36000000
   H     45.45000000    37.30000000    25.49000000
   H     46.10000000    36.07000000    24.31000000
   H     44.51000000    35.90000000    25.04000000
   N     46.09000000    34.76000000    30.73000000
   C     45.83000000    34.64000000    32.15000000
   C     45.20000000    35.93000000    32.66000000
   O     45.23000000    36.95000000    31.99000000
   C     47.04000000    34.13000000    32.93000000
   O     48.09000000    35.07000000    32.86000000
   H     46.67000000    35.54000000    30.47000000
   H     45.09000000    33.85000000    32.16000000
   H     47.45000000    33.25000000    32.42000000
   H     47.01000000    33.86000000    33.98000000
   H     48.41000000    35.15000000    31.96000000
   N     44.45000000    35.93000000    33.77000000
   C     43.55000000    37.00000000    34.12000000
   C     44.19000000    38.38000000    34.22000000
   O     43.62000000    39.35000000    33.72000000
   C     42.86000000    36.65000000    35.44000000
   H     44.42000000    35.05000000    34.27000000
   H     42.82000000    37.03000000    33.30000000
   H     43.02000000    35.64000000    35.80000000
   H     43.06000000    37.40000000    36.21000000
   H     41.79000000    36.67000000    35.26000000
   N     45.37000000    38.44000000    34.83000000
   C     46.15000000    39.66000000    34.76000000
   C     46.50000000    40.13000000    33.35000000
   O     46.37000000    41.28000000    32.94000000
   C     47.38000000    39.42000000    35.64000000
   H     45.82000000    37.56000000    35.01000000
   H     45.54000000    40.44000000    35.21000000
   H     47.93000000    40.36000000    35.60000000
   H     47.19000000    39.34000000    36.71000000
   H     47.93000000    38.55000000    35.31000000
   N     46.78000000    39.27000000    32.37000000
   C     47.01000000    39.59000000    30.98000000
   C     45.81000000    40.18000000    30.25000000
   O     45.98000000    41.15000000    29.52000000
   C     47.69000000    38.44000000    30.24000000
   C     48.93000000    37.93000000    30.96000000
   C     49.45000000    36.63000000    30.36000000
   O     50.41000000    36.71000000    29.56000000
   O     48.91000000    35.51000000    30.54000000
   H     46.84000000    38.27000000    32.56000000
   H     47.74000000    40.39000000    31.05000000
   H     48.01000000    38.72000000    29.23000000
   H     46.92000000    37.69000000    30.06000000
   H     48.75000000    37.83000000    32.03000000
   H     49.60000000    38.78000000    30.81000000
   N     44.65000000    39.55000000    30.47000000
   C     43.33000000    39.92000000    30.03000000
   H     42.66700000    39.99300000    30.89200000
   H     43.37200000    40.88400000    29.52300000
   H     42.95000000    39.16400000    29.34300000
   H     44.74000000    38.72000000    31.04000000
  Ca     51.00000000    34.22000000    29.32000000
   O     49.58000000    32.49000000    30.78000000
   H     49.17000000    31.65000000    30.98000000
   H     50.02000000    32.74000000    31.59000000

Ca 1.70



