%chk=holoCaM_loop3_22.0.chk
%nprocshared=48
%mem=10GB
%nosave
#b3lyp/svp scf=(tight,noincore) Test 
#IOP(5/87=12) Density=Current Pop=(MK,readradii) iop(6/33=2) iop(6/42=6)

holoCaM_loop3_22.0 

   0   1
   C     86.04000000    33.67000000    25.42000000
   C     87.54000000    33.43000000    25.52000000
   O     87.96000000    32.46000000    26.14000000
   H     85.54600000    33.24700000    26.29500000
   H     85.84500000    34.74200000    25.37600000
   H     85.65400000    33.19200000    24.51900000
   N     88.36000000    34.39000000    25.07000000
   C     89.80000000    34.39000000    25.20000000
   C     90.23000000    34.92000000    26.56000000
   O     89.96000000    36.06000000    26.94000000
   C     90.41000000    35.12000000    24.01000000
   C     91.93000000    35.14000000    23.93000000
   O     92.50000000    35.65000000    22.94000000
   O     92.54000000    34.58000000    24.87000000
   H     87.98000000    35.17000000    24.55000000
   H     90.07000000    33.34000000    25.27000000
   H     90.09000000    36.16000000    23.98000000
   H     89.99000000    34.58000000    23.16000000
   N     90.83000000    34.08000000    27.41000000
   C     90.98000000    34.28000000    28.84000000
   C     92.30000000    34.94000000    29.22000000
   O     92.62000000    35.28000000    30.35000000
   C     90.62000000    32.92000000    29.43000000
   C     89.28000000    32.20000000    29.37000000
   C     88.09000000    33.16000000    29.41000000
   C     86.75000000    32.43000000    29.39000000
   N     85.56000000    33.30000000    29.32000000
   H     91.03000000    33.17000000    27.03000000
   H     90.27000000    35.04000000    29.16000000
   H     90.72000000    33.06000000    30.50000000
   H     91.34000000    32.13000000    29.17000000
   H     89.22000000    31.53000000    30.23000000
   H     89.25000000    31.67000000    28.42000000
   H     88.15000000    33.79000000    28.52000000
   H     88.10000000    33.82000000    30.27000000
   H     86.72000000    31.80000000    30.27000000
   H     86.69000000    31.87000000    28.46000000
   H     85.71000000    33.99000000    28.61000000
   H     84.80000000    32.72000000    29.01000000
   H     85.39000000    33.87000000    30.14000000
   N     93.05000000    35.33000000    28.19000000
   C     94.27000000    36.10000000    28.27000000
   C     94.52000000    37.08000000    27.13000000
   O     95.47000000    37.86000000    27.08000000
   C     95.53000000    35.27000000    28.52000000
   C     95.89000000    34.28000000    27.43000000
   O     95.35000000    34.33000000    26.30000000
   O     96.82000000    33.50000000    27.73000000
   H     92.77000000    35.13000000    27.24000000
   H     94.25000000    36.71000000    29.17000000
   H     95.26000000    34.73000000    29.43000000
   H     96.36000000    35.89000000    28.87000000
   N     93.69000000    37.13000000    26.09000000
   C     93.52000000    38.17000000    25.09000000
   C     94.53000000    38.01000000    23.97000000
   O     94.68000000    38.94000000    23.19000000
   H     93.07000000    36.34000000    25.99000000
   H     93.67000000    39.10000000    25.64000000
   H     92.52000000    38.16000000    24.66000000
   N     95.29000000    36.91000000    23.93000000
   C     96.44000000    36.74000000    23.06000000
   C     96.22000000    36.68000000    21.56000000
   O     97.15000000    36.86000000    20.78000000
   C     97.15000000    35.51000000    23.63000000
   C     96.62000000    34.18000000    23.13000000
   N     97.46000000    33.37000000    22.47000000
   O     95.45000000    33.83000000    23.13000000
   H     95.00000000    36.14000000    24.51000000
   H     97.11000000    37.59000000    23.22000000
   H     97.16000000    35.56000000    24.72000000
   H     98.21000000    35.60000000    23.39000000
   H     98.45000000    33.55000000    22.37000000
   H     97.11000000    32.47000000    22.19000000
   N     94.97000000    36.42000000    21.15000000
   C     94.60000000    36.43000000    19.75000000
   C     93.96000000    35.09000000    19.40000000
   O     93.48000000    35.01000000    18.27000000
   H     94.24000000    36.16000000    21.79000000
   H     95.44000000    36.50000000    19.05000000
   H     93.87000000    37.22000000    19.60000000
   N     93.94000000    34.05000000    20.23000000
   C     93.55000000    32.69000000    19.92000000
   C     92.87000000    32.04000000    21.11000000
   O     93.21000000    32.22000000    22.28000000
   C     94.76000000    31.81000000    19.60000000
   C     95.87000000    32.31000000    18.70000000
   C     97.21000000    32.18000000    19.06000000
   C     95.58000000    32.70000000    17.39000000
   C     98.20000000    32.67000000    18.20000000
   C     96.57000000    33.15000000    16.51000000
   C     97.93000000    33.09000000    16.88000000
   O     98.95000000    33.57000000    16.11000000
   H     94.09000000    34.19000000    21.22000000
   H     92.88000000    32.64000000    19.06000000
   H     94.35000000    30.94000000    19.10000000
   H     95.23000000    31.44000000    20.51000000
   H     97.48000000    31.75000000    20.02000000
   H     94.53000000    32.70000000    17.13000000
   H     99.23000000    32.64000000    18.53000000
   H     96.39000000    33.60000000    15.54000000
   H     98.66000000    33.91000000    15.25000000
   N     91.98000000    31.10000000    20.78000000
   C     91.21000000    30.24000000    21.66000000
   C     91.75000000    28.82000000    21.58000000
   O     91.83000000    28.30000000    20.47000000
   C     89.70000000    30.25000000    21.46000000
   C     89.14000000    31.66000000    21.38000000
   C     89.00000000    29.49000000    22.59000000
   C     87.63000000    31.80000000    21.20000000
   H     91.84000000    30.92000000    19.80000000
   H     91.45000000    30.62000000    22.65000000
   H     89.47000000    29.86000000    20.47000000
   H     89.59000000    32.16000000    20.52000000
   H     89.40000000    32.16000000    22.31000000
   H     89.43000000    28.52000000    22.82000000
   H     88.96000000    30.08000000    23.51000000
   H     87.97000000    29.32000000    22.26000000
   H     87.27000000    31.29000000    20.30000000
   H     87.08000000    31.44000000    22.07000000
   H     87.40000000    32.86000000    21.07000000
   N     92.10000000    28.21000000    22.72000000
   C     92.62000000    26.88000000    22.96000000
   C     91.56000000    25.88000000    23.41000000
   O     90.41000000    26.27000000    23.60000000
   C     93.63000000    26.94000000    24.10000000
   O     93.09000000    27.58000000    25.24000000
   H     91.91000000    28.79000000    23.52000000
   H     93.22000000    26.56000000    22.11000000
   H     94.59000000    27.41000000    23.87000000
   H     93.93000000    25.99000000    24.54000000
   H     93.00000000    28.52000000    25.07000000
   N     91.83000000    24.58000000    23.55000000
   C     90.87000000    23.58000000    23.96000000
   C     90.40000000    23.83000000    25.39000000
   O     89.20000000    23.64000000    25.59000000
   C     91.52000000    22.21000000    23.79000000
   H     92.71000000    24.28000000    23.14000000
   H     89.99000000    23.60000000    23.32000000
   H     92.17000000    21.93000000    24.62000000
   H     90.68000000    21.52000000    23.77000000
   H     92.06000000    22.12000000    22.85000000
   N     91.25000000    24.31000000    26.30000000
   C     90.96000000    24.88000000    27.60000000
   C     89.91000000    25.98000000    27.74000000
   O     88.91000000    25.86000000    28.45000000
   C     92.28000000    25.36000000    28.19000000
   H     92.23000000    24.11000000    26.13000000
   H     90.66000000    24.07000000    28.26000000
   H     92.66000000    26.09000000    27.48000000
   H     92.17000000    25.76000000    29.20000000
   H     92.98000000    24.53000000    28.20000000
   N     90.01000000    26.92000000    26.79000000
   C     89.12000000    28.05000000    26.65000000
   C     87.85000000    27.77000000    25.85000000
   O     86.81000000    28.29000000    26.26000000
   C     89.90000000    29.19000000    26.02000000
   C     91.18000000    29.59000000    26.73000000
   C     92.03000000    30.53000000    25.88000000
   O     92.00000000    31.74000000    26.19000000
   O     92.72000000    30.15000000    24.91000000
   H     90.83000000    26.83000000    26.22000000
   H     88.90000000    28.47000000    27.63000000
   H     89.14000000    29.98000000    26.04000000
   H     90.09000000    28.86000000    25.00000000
   H     91.77000000    28.71000000    27.01000000
   H     91.01000000    30.10000000    27.68000000
   N     87.90000000    26.78000000    24.97000000
   C     86.69000000    26.27000000    24.35000000
   H     85.91900000    27.04100000    24.37100000
   H     86.89900000    25.99400000    23.31700000
   H     86.34200000    25.39400000    24.89800000
   H     88.81000000    26.33000000    24.94000000
  Ca     94.08000000    32.48000000    24.93000000
   O     95.27000000    31.42000000    27.03000000
   H     95.73000000    30.61000000    27.25000000
   H     95.80000000    32.11000000    27.44000000

Ca 1.70



