%Nproc=28
%chk=holo38.0.chk
%mem=80GB
%NoSave
#MP2(semidirect)/Gen scf=(tight,noincore) Test
#IOP(5/87=12) Density=Current Pop=(MK,readradii) iop(6/33=2) iop(6/42=6)

holo_loop_3_model_38.0 

   0   1
   C     31.18000000    71.55000000     9.90000000
   C     30.21000000    70.94000000     8.88000000
   C     29.19000000    71.92000000     8.33000000
   O     27.98000000    71.75000000     8.31000000
   O     29.78000000    73.04000000     7.81000000
   H     31.90100000    70.81000000    10.24600000
   H     30.63300000    71.91000000    10.77100000
   H     31.68000000    72.38000000     9.40000000
   H     29.68000000    70.10000000     9.34000000
   H     30.85000000    70.52000000     8.10000000
   H     30.74000000    73.02000000     7.76000000
   C     29.86000000    76.40000000    11.23000000
   C     30.81000000    76.98000000    10.19000000
   C     31.05000000    76.11000000     8.97000000
   O     31.85000000    75.15000000     9.04000000
   O     30.37000000    76.40000000     7.96000000
   H     30.23900000    75.44400000    11.59100000
   H     28.87800000    76.24100000    10.78500000
   H     29.78000000    77.11000000    12.06000000
   H     31.78000000    77.11000000    10.67000000
   H     30.44000000    77.97000000     9.92000000
   C     38.42000000    74.03000000     9.22000000
   C     37.03000000    73.85000000     8.64000000
   C     36.32000000    75.17000000     8.33000000
   C     35.37000000    75.18000000     7.13000000
   O     35.47000000    74.34000000     6.22000000
   O     34.47000000    76.04000000     7.15000000
   H     39.12800000    74.44000000     8.50000000
   H     38.83700000    73.07400000     9.53600000
   H     38.26000000    74.69000000    10.08000000
   H     36.44000000    73.32000000     9.39000000
   H     37.01000000    73.15000000     7.81000000
   H     36.99000000    76.02000000     8.35000000
   H     35.69000000    75.44000000     9.18000000
  Ca     32.14000000    75.24000000     6.32000000
   O     33.35000000    75.12000000     3.85000000
   H     33.99000000    75.82000000     3.91000000
   H     33.32000000    74.89000000     2.92000000

C O H 0
aug-cc-pVTZ 
****
@/home/pzhang5/ca_ccpvtz_basisset.gbs/N

Ca 1.70




