%Nproc=28
%chk=holo29.0.chk
%mem=80GB
%NoSave
#MP2(semidirect)/Gen scf=(tight,noincore) Test
#IOP(5/87=12) Density=Current Pop=(MK,readradii) iop(6/33=2) iop(6/42=6)

holo_loop_3_model_29.0 

   0   1
   C     30.06000000    72.75000000     9.43000000
   C     29.03000000    71.90000000     8.68000000
   C     28.08000000    72.68000000     7.78000000
   O     26.89000000    72.37000000     7.73000000
   O     28.50000000    73.73000000     7.02000000
   H     30.82500000    72.11200000     9.87300000
   H     29.56900000    73.30700000    10.22800000
   H     30.51000000    73.44000000     8.72000000
   H     28.38000000    71.40000000     9.39000000
   H     29.44000000    71.17000000     7.98000000
   H     29.40000000    73.65000000     6.69000000
   C     27.71000000    77.85000000    10.63000000
   C     28.47000000    78.71000000     9.63000000
   C     29.04000000    78.02000000     8.40000000
   O     28.89000000    76.79000000     8.21000000
   O     29.78000000    78.64000000     7.60000000
   H     28.33000000    77.00100000    10.91800000
   H     26.78800000    77.49200000    10.17300000
   H     27.47000000    78.44000000    11.52000000
   H     29.35000000    79.17000000    10.09000000
   H     27.85000000    79.57000000     9.35000000
   C     36.64000000    74.95000000     9.60000000
   C     35.30000000    74.82000000     8.88000000
   C     34.35000000    76.01000000     8.91000000
   C     33.19000000    75.81000000     7.94000000
   O     32.03000000    75.74000000     8.41000000
   O     33.46000000    75.75000000     6.72000000
   H     37.33100000    75.50900000     8.96900000
   H     37.04100000    73.95600000     9.79800000
   H     36.51000000    75.48000000    10.54000000
   H     34.72000000    74.01000000     9.32000000
   H     35.52000000    74.63000000     7.83000000
   H     34.82000000    76.99000000     8.81000000
   H     34.00000000    76.00000000     9.94000000
  Ca     30.76000000    76.59000000     6.19000000
   O     31.91000000    76.96000000     3.80000000
   H     31.49000000    76.99000000     2.94000000
   H     32.56000000    77.66000000     3.76000000

C O H 0
aug-cc-pVTZ 
****
@/home/pzhang5/ca_ccpvtz_basisset.gbs/N

Ca 1.70




