%Nproc=28
%chk=holo6.0.chk
%mem=80GB
%NoSave
#MP2(semidirect)/Gen scf=(tight,noincore) Test
#IOP(5/87=12) Density=Current Pop=(MK,readradii) iop(6/33=2) iop(6/42=6)

holo_loop_3_model_6.0 

   0   1
   C     31.42000000    74.67000000    11.31000000
   C     30.41000000    73.97000000    10.41000000
   C     29.59000000    74.98000000     9.61000000
   O     28.37000000    75.01000000     9.59000000
   O     30.28000000    75.91000000     8.88000000
   H     32.09600000    73.89800000    11.67900000
   H     30.87500000    75.17300000    12.10900000
   H     32.04000000    75.41000000    10.80000000
   H     29.78000000    73.19000000    10.83000000
   H     31.00000000    73.45000000     9.66000000
   H     31.23000000    75.83000000     8.96000000
   C     29.55000000    79.81000000    12.73000000
   C     30.31000000    80.80000000    11.85000000
   C     31.18000000    80.18000000    10.77000000
   O     31.91000000    80.94000000    10.10000000
   O     31.05000000    78.97000000    10.48000000
   H     30.25400000    79.02900000    13.01600000
   H     28.70700000    79.41800000    12.16100000
   H     29.17000000    80.25000000    13.65000000
   H     30.98000000    81.34000000    12.51000000
   H     29.60000000    81.51000000    11.42000000
   C     38.38000000    75.97000000    10.88000000
   C     37.08000000    76.35000000    10.17000000
   C     36.68000000    77.79000000    10.47000000
   C     35.38000000    78.15000000     9.77000000
   O     35.37000000    77.89000000     8.54000000
   O     34.34000000    78.43000000    10.40000000
   H     39.22700000    76.49300000    10.43600000
   H     38.55600000    74.89800000    10.78700000
   H     38.27000000    76.24000000    11.93000000
   H     36.27000000    75.68000000    10.46000000
   H     37.24000000    76.19000000     9.10000000
   H     37.34000000    78.56000000    10.05000000
   H     36.47000000    77.94000000    11.53000000
  Ca     32.89000000    79.10000000     8.41000000
   O     34.30000000    79.69000000     6.22000000
   H     35.06000000    80.26000000     6.34000000
   H     34.33000000    79.45000000     5.29000000

C O H 0
aug-cc-pVTZ 
****
@/home/pzhang5/ca_ccpvtz_basisset.gbs/N

Ca 1.70




