%Nproc=28
%chk=holo24.0.chk
%mem=80GB
%NoSave
#MP2(semidirect)/Gen scf=(tight,noincore) Test
#IOP(5/87=12) Density=Current Pop=(MK,readradii) iop(6/33=2) iop(6/42=6)

holo_loop_3_model_24.0 

   0   1
   C     31.44000000    72.39000000    10.30000000
   C     30.51000000    71.47000000     9.51000000
   C     29.34000000    72.10000000     8.77000000
   O     28.14000000    71.83000000     8.80000000
   O     29.73000000    73.15000000     7.99000000
   H     32.11600000    71.78000000    10.89800000
   H     30.84500000    73.03300000    10.94800000
   H     32.03000000    73.01000000     9.62000000
   H     30.15000000    70.68000000    10.17000000
   H     31.16000000    71.00000000     8.77000000
   H     30.63000000    73.10000000     7.67000000
   C     28.95000000    77.16000000    11.56000000
   C     29.58000000    78.11000000    10.55000000
   C     30.43000000    77.46000000     9.48000000
   O     30.55000000    76.21000000     9.42000000
   O     30.88000000    78.12000000     8.52000000
   H     29.65100000    76.36500000    11.81500000
   H     28.05300000    76.71100000    11.13400000
   H     28.69000000    77.73000000    12.45000000
   H     30.24000000    78.85000000    11.02000000
   H     28.85000000    78.75000000    10.04000000
   C     38.16000000    74.27000000     9.25000000
   C     36.72000000    74.09000000     8.76000000
   C     35.98000000    75.43000000     8.73000000
   C     34.66000000    75.27000000     8.00000000
   O     33.63000000    75.30000000     8.72000000
   O     34.68000000    75.12000000     6.76000000
   H     38.81900000    74.71900000     8.50700000
   H     38.61800000    73.31100000     9.49200000
   H     38.03000000    74.88000000    10.14000000
   H     36.15000000    73.39000000     9.37000000
   H     36.78000000    73.71000000     7.74000000
   H     36.51000000    76.17000000     8.12000000
   H     35.74000000    75.78000000     9.73000000
  Ca     31.80000000    75.88000000     7.07000000
   O     33.10000000    78.41000000     6.58000000
   H     33.98000000    78.59000000     6.25000000
   H     32.92000000    79.14000000     7.18000000

C O H 0
aug-cc-pVTZ 
****
@/home/pzhang5/ca_ccpvtz_basisset.gbs/N

Ca 1.70




