%Nproc=28
%chk=holo16.0.chk
%mem=80GB
%NoSave
#MP2(semidirect)/Gen scf=(tight,noincore) Test
#IOP(5/87=12) Density=Current Pop=(MK,readradii) iop(6/33=2) iop(6/42=6)

holo_loop_3_model_16.0 

   0   1
   C     30.77000000    70.85000000     9.01000000
   C     30.02000000    70.22000000     7.84000000
   C     28.95000000    71.18000000     7.33000000
   O     27.76000000    70.90000000     7.20000000
   O     29.49000000    72.31000000     6.80000000
   H     31.38000000    70.10500000     9.52100000
   H     30.06200000    71.26000000     9.73000000
   H     31.39000000    71.64000000     8.61000000
   H     29.56000000    69.33000000     8.27000000
   H     30.70000000    69.90000000     7.05000000
   H     30.43000000    72.23000000     6.62000000
   C     28.98000000    75.57000000    10.43000000
   C     29.89000000    76.37000000     9.51000000
   C     30.43000000    75.64000000     8.29000000
   O     30.61000000    76.29000000     7.24000000
   O     30.60000000    74.41000000     8.42000000
   H     29.53400000    74.74900000    10.88600000
   H     28.15000000    75.15500000     9.85900000
   H     28.60000000    76.24000000    11.20000000
   H     30.70000000    76.79000000    10.10000000
   H     29.33000000    77.20000000     9.07000000
   C     37.57000000    72.94000000     9.74000000
   C     36.29000000    73.02000000     8.92000000
   C     35.71000000    74.40000000     8.62000000
   C     34.65000000    74.47000000     7.54000000
   O     34.25000000    73.42000000     6.98000000
   O     34.11000000    75.60000000     7.46000000
   H     38.35500000    73.46100000     9.19200000
   H     37.82700000    71.89200000     9.89200000
   H     37.46000000    73.42000000    10.71000000
   H     35.53000000    72.52000000     9.53000000
   H     36.37000000    72.50000000     7.97000000
   H     36.48000000    75.09000000     8.25000000
   H     35.39000000    74.79000000     9.59000000
  Ca     32.07000000    74.65000000     5.77000000
   O     33.15000000    77.15000000     5.21000000
   H     33.11000000    78.08000000     5.43000000
   H     34.03000000    76.88000000     5.46000000

C O H 0
aug-cc-pVTZ 
****
@/home/pzhang5/ca_ccpvtz_basisset.gbs/N

Ca 1.70




