%Nproc=28
%chk=holo7.0.chk
%mem=80GB
%NoSave
#MP2(semidirect)/Gen scf=(tight,noincore) Test
#IOP(5/87=12) Density=Current Pop=(MK,readradii) iop(6/33=2) iop(6/42=6)

holo_loop_3_model_7.0 

   0   1
   C     31.19000000    74.73000000    11.30000000
   C     30.30000000    74.15000000    10.20000000
   C     29.31000000    75.16000000     9.63000000
   O     28.11000000    75.13000000     9.87000000
   O     29.83000000    76.02000000     8.71000000
   H     31.90900000    73.97200000    11.61000000
   H     30.57000000    75.02400000    12.14700000
   H     31.73000000    75.60000000    10.93000000
   H     29.74000000    73.41000000    10.76000000
   H     30.87000000    73.59000000     9.46000000
   H     30.79000000    76.00000000     8.70000000
   C     30.15000000    79.72000000    12.92000000
   C     31.09000000    80.47000000    11.97000000
   C     31.26000000    79.91000000    10.57000000
   O     31.60000000    80.68000000     9.65000000
   O     30.99000000    78.71000000    10.35000000
   H     30.46900000    78.70100000    13.13800000
   H     29.15300000    79.61600000    12.49100000
   H     30.14000000    80.37000000    13.79000000
   H     32.11000000    80.46000000    12.37000000
   H     30.75000000    81.50000000    11.91000000
   C     38.45000000    76.30000000    10.85000000
   C     37.07000000    76.56000000    10.25000000
   C     36.71000000    78.04000000    10.36000000
   C     35.42000000    78.44000000     9.64000000
   O     35.28000000    78.08000000     8.45000000
   O     34.62000000    79.07000000    10.36000000
   H     39.23800000    76.84800000    10.33400000
   H     38.71300000    75.24500000    10.77200000
   H     38.35000000    76.60000000    11.90000000
   H     36.43000000    75.94000000    10.88000000
   H     37.05000000    76.15000000     9.24000000
   H     37.44000000    78.69000000     9.88000000
   H     36.65000000    78.28000000    11.42000000
  Ca     32.72000000    78.98000000     8.19000000
   O     33.85000000    79.61000000     5.84000000
   H     34.60000000    80.19000000     5.98000000
   H     33.80000000    79.51000000     4.89000000

C O H 0
aug-cc-pVTZ 
****
@/home/pzhang5/ca_ccpvtz_basisset.gbs/N

Ca 1.70




