%Nproc=28
%chk=holo13.0.chk
%mem=80GB
%NoSave
#MP2(semidirect)/Gen scf=(tight,noincore) Test
#IOP(5/87=12) Density=Current Pop=(MK,readradii) iop(6/33=2) iop(6/42=6)

holo_loop_3_model_13.0 

   0   1
   C     30.87000000    71.83000000     9.95000000
   C     30.11000000    71.03000000     8.89000000
   C     29.00000000    71.77000000     8.16000000
   O     27.81000000    71.55000000     8.38000000
   O     29.43000000    72.53000000     7.11000000
   H     31.53600000    71.23100000    10.57100000
   H     30.19000000    72.30200000    10.65900000
   H     31.38000000    72.57000000     9.33000000
   H     29.48000000    70.36000000     9.48000000
   H     30.72000000    70.45000000     8.20000000
   H     30.36000000    72.29000000     7.05000000
   C     28.63000000    76.63000000    10.96000000
   C     29.41000000    77.48000000     9.96000000
   C     30.08000000    76.69000000     8.84000000
   O     30.62000000    77.38000000     7.95000000
   O     30.15000000    75.44000000     8.80000000
   H     29.27200000    75.86000000    11.38700000
   H     27.79400000    76.14100000    10.46000000
   H     28.26000000    77.29000000    11.74000000
   H     30.11000000    78.09000000    10.53000000
   H     28.72000000    78.17000000     9.47000000
   C     38.11000000    73.66000000     9.89000000
   C     36.76000000    73.60000000     9.19000000
   C     36.23000000    75.04000000     9.26000000
   C     35.10000000    75.41000000     8.31000000
   O     34.84000000    74.62000000     7.38000000
   O     34.22000000    76.25000000     8.60000000
   H     38.75100000    74.16400000     9.16700000
   H     38.37600000    72.63700000    10.15600000
   H     38.22000000    74.26000000    10.79000000
   H     36.07000000    72.95000000     9.73000000
   H     36.93000000    73.29000000     8.16000000
   H     36.98000000    75.80000000     9.04000000
   H     35.88000000    75.22000000    10.27000000
  Ca     32.44000000    75.41000000     6.70000000
   O     32.73000000    78.17000000     6.68000000
   H     32.63000000    79.03000000     6.27000000
   H     31.96000000    78.08000000     7.23000000

C O H 0
aug-cc-pVTZ 
****
@/home/pzhang5/ca_ccpvtz_basisset.gbs/N

Ca 1.70




