%Nproc=28
%chk=holo52.0.chk
%mem=80GB
%NoSave
#MP2(semidirect)/Gen scf=(tight,noincore) Test
#IOP(5/87=12) Density=Current Pop=(MK,readradii) iop(6/33=2) iop(6/42=6)

holo_loop_3_model_52.0 

   0   1
   C     38.31000000    71.51000000    15.21000000
   C     36.92000000    71.23000000    14.65000000
   C     36.02000000    72.42000000    14.33000000
   O     34.92000000    72.61000000    14.86000000
   O     36.44000000    73.24000000    13.33000000
   H     38.79900000    70.53700000    15.26000000
   H     38.18500000    72.00700000    16.17200000
   H     38.97000000    72.13000000    14.60000000
   H     36.42000000    70.51000000    15.29000000
   H     37.02000000    70.60000000    13.77000000
   H     37.18000000    72.89000000    12.83000000
   C     38.64000000    76.54000000    17.55000000
   C     39.35000000    77.20000000    16.37000000
   C     39.24000000    76.62000000    14.97000000
   O     40.13000000    77.02000000    14.19000000
   O     38.38000000    75.75000000    14.70000000
   H     39.05500000    75.55800000    17.77600000
   H     37.58400000    76.39100000    17.32600000
   H     38.76000000    77.23000000    18.38000000
   H     40.43000000    77.31000000    16.50000000
   H     39.01000000    78.24000000    16.32000000
   C     44.49000000    70.79000000    12.91000000
   C     43.05000000    71.24000000    12.64000000
   C     42.92000000    72.73000000    12.93000000
   C     41.56000000    73.30000000    12.57000000
   O     40.88000000    73.64000000    13.56000000
   O     41.24000000    73.46000000    11.37000000
   H     45.24000000    71.30700000    12.31200000
   H     44.63200000    69.73600000    12.67000000
   H     44.57000000    70.97000000    13.98000000
   H     42.32000000    70.64000000    13.18000000
   H     42.83000000    71.04000000    11.59000000
   H     43.64000000    73.35000000    12.39000000
   H     43.10000000    72.92000000    13.99000000
  Ca     39.38000000    75.40000000    12.18000000
   O     40.40000000    75.34000000     9.45000000
   H     40.69000000    74.48000000     9.75000000
   H     40.61000000    75.34000000     8.51000000

C O H 0
aug-cc-pVTZ 
****
@/home/pzhang5/ca_ccpvtz_basisset.gbs/N

Ca 1.70




