%Nproc=28
%chk=holo21.0.chk
%mem=80GB
%NoSave
#MP2(semidirect)/Gen scf=(tight,noincore) Test
#IOP(5/87=12) Density=Current Pop=(MK,readradii) iop(6/33=2) iop(6/42=6)

holo_loop_3_model_21.0 

   0   1
   C     31.06000000    70.95000000     9.34000000
   C     30.12000000    70.08000000     8.51000000
   C     29.10000000    70.86000000     7.70000000
   O     27.91000000    70.65000000     7.87000000
   O     29.67000000    71.66000000     6.75000000
   H     31.67600000    70.32900000     9.99100000
   H     30.48100000    71.63300000     9.96200000
   H     31.68000000    71.51000000     8.66000000
   H     29.58000000    69.42000000     9.19000000
   H     30.65000000    69.47000000     7.77000000
   H     30.63000000    71.60000000     6.76000000
   C     28.85000000    75.95000000    10.63000000
   C     29.42000000    76.78000000     9.49000000
   C     29.80000000    75.96000000     8.26000000
   O     29.82000000    74.71000000     8.26000000
   O     29.93000000    76.62000000     7.20000000
   H     29.50100000    75.13700000    10.95100000
   H     27.91900000    75.46300000    10.34000000
   H     28.68000000    76.71000000    11.40000000
   H     30.40000000    77.19000000     9.73000000
   H     28.74000000    77.56000000     9.16000000
   C     37.77000000    73.11000000     8.83000000
   C     36.38000000    72.83000000     8.25000000
   C     35.59000000    74.12000000     8.05000000
   C     34.31000000    73.89000000     7.26000000
   O     33.29000000    73.67000000     7.96000000
   O     34.28000000    74.05000000     6.02000000
   H     38.40500000    73.63700000     8.11700000
   H     38.27500000    72.17600000     9.07700000
   H     37.60000000    73.70000000     9.73000000
   H     35.73000000    72.32000000     8.95000000
   H     36.53000000    72.30000000     7.30000000
   H     36.18000000    74.88000000     7.54000000
   H     35.15000000    74.38000000     9.01000000
  Ca     31.46000000    74.68000000     6.02000000
   O     32.13000000    75.44000000     3.53000000
   H     32.35000000    74.91000000     2.76000000
   H     32.26000000    76.35000000     3.24000000

C O H 0
aug-cc-pVTZ 
****
@/home/pzhang5/ca_ccpvtz_basisset.gbs/N

Ca 1.70




