%Nproc=28
%chk=holo22.0.chk
%mem=80GB
%NoSave
#MP2(semidirect)/Gen scf=(tight,noincore) Test
#IOP(5/87=12) Density=Current Pop=(MK,readradii) iop(6/33=2) iop(6/42=6)

holo_loop_3_model_22.0 

   0   1
   C     30.88000000    71.73000000     9.48000000
   C     29.81000000    70.92000000     8.75000000
   C     28.71000000    71.78000000     8.14000000
   O     27.50000000    71.61000000     8.30000000
   O     29.11000000    72.66000000     7.18000000
   H     31.54700000    71.02300000     9.97400000
   H     30.39000000    72.39000000    10.19600000
   H     31.48000000    72.33000000     8.81000000
   H     29.27000000    70.30000000     9.47000000
   H     30.28000000    70.31000000     7.98000000
   H     30.05000000    72.67000000     6.97000000
   C     28.92000000    76.80000000    10.78000000
   C     29.47000000    77.60000000     9.60000000
   C     29.91000000    76.74000000     8.42000000
   O     29.83000000    75.50000000     8.38000000
   O     30.36000000    77.43000000     7.48000000
   H     29.71200000    76.12600000    11.10700000
   H     28.03100000    76.26200000    10.44900000
   H     28.65000000    77.42000000    11.64000000
   H     30.33000000    78.19000000     9.90000000
   H     28.73000000    78.31000000     9.24000000
   C     37.76000000    74.07000000     8.58000000
   C     36.35000000    73.95000000     8.00000000
   C     35.56000000    75.25000000     8.16000000
   C     34.18000000    75.27000000     7.53000000
   O     33.23000000    75.92000000     8.03000000
   O     34.03000000    74.63000000     6.47000000
   H     38.34800000    74.67100000     7.88700000
   H     38.17400000    73.06900000     8.70000000
   H     37.78000000    74.57000000     9.54000000
   H     35.84000000    73.09000000     8.43000000
   H     36.44000000    73.70000000     6.95000000
   H     36.12000000    76.00000000     7.61000000
   H     35.44000000    75.51000000     9.21000000
  Ca     31.45000000    75.45000000     6.12000000
   O     32.99000000    77.69000000     5.45000000
   H     32.86000000    77.89000000     4.52000000
   H     33.70000000    78.28000000     5.72000000

C O H 0
aug-cc-pVTZ 
****
@/home/pzhang5/ca_ccpvtz_basisset.gbs/N

Ca 1.70




