%Nproc=28
%chk=holo56.0.chk
%mem=80GB
%NoSave
#MP2(semidirect)/Gen scf=(tight,noincore) Test
#IOP(5/87=12) Density=Current Pop=(MK,readradii) iop(6/33=2) iop(6/42=6)

holo_loop_3_model_56.0 

   0   1
   C     30.87000000    71.70000000     9.39000000
   C     29.93000000    70.82000000     8.57000000
   C     28.82000000    71.59000000     7.87000000
   O     27.64000000    71.43000000     8.18000000
   O     29.22000000    72.31000000     6.78000000
   H     31.55800000    71.10300000     9.98800000
   H     30.30200000    72.32200000    10.08200000
   H     31.40000000    72.32000000     8.67000000
   H     29.44000000    70.19000000     9.31000000
   H     30.50000000    70.28000000     7.81000000
   H     30.10000000    72.00000000     6.54000000
   C     29.02000000    76.79000000    10.23000000
   C     29.88000000    77.34000000     9.10000000
   C     30.20000000    76.57000000     7.83000000
   O     29.98000000    75.34000000     7.74000000
   O     30.66000000    77.23000000     6.87000000
   H     29.63500000    76.03900000    10.72600000
   H     28.10300000    76.39800000     9.79100000
   H     28.74000000    77.50000000    11.01000000
   H     30.83000000    77.57000000     9.60000000
   H     29.50000000    78.28000000     8.69000000
   C     38.24000000    74.16000000     9.04000000
   C     36.88000000    73.99000000     8.37000000
   C     36.23000000    75.33000000     8.01000000
   C     34.99000000    75.20000000     7.14000000
   O     35.03000000    74.57000000     6.07000000
   O     33.93000000    75.78000000     7.47000000
   H     38.91700000    74.55900000     8.28400000
   H     38.56000000    73.18900000     9.41800000
   H     38.24000000    74.87000000     9.87000000
   H     36.22000000    73.53000000     9.11000000
   H     36.80000000    73.34000000     7.50000000
   H     36.93000000    76.02000000     7.54000000
   H     35.89000000    75.84000000     8.91000000
  Ca     31.99000000    75.08000000     5.93000000
   O     33.27000000    74.66000000     3.60000000
   H     33.56000000    75.57000000     3.54000000
   H     33.38000000    74.32000000     2.71000000

C O H 0
aug-cc-pVTZ 
****
@/home/pzhang5/ca_ccpvtz_basisset.gbs/N

Ca 1.70




