%Nproc=28
%chk=holo1.2.chk
%mem=80GB
%NoSave
#MP2(semidirect)/Gen scf=(tight,noincore) Test
#IOP(5/87=12) Density=Current Pop=(MK,readradii) iop(6/33=2) iop(6/42=6)

holo_loop_3_model_1.2 

   0   1
   C     43.55000000    53.81000000    35.15000000
   C     42.61000000    55.00000000    34.94000000
   C     41.59000000    55.13000000    36.06000000
   O     40.38000000    55.05000000    35.87000000
   O     42.20000000    55.41000000    37.25000000
   H     44.46100000    53.95900000    34.57000000
   H     43.05800000    52.89500000    34.82200000
   H     43.80000000    53.73000000    36.20000000
   H     41.93000000    54.93000000    34.09000000
   H     43.08000000    55.98000000    34.93000000
   H     41.52000000    55.43000000    37.92000000
   C     41.15000000    49.52000000    37.90000000
   C     41.66000000    49.60000000    39.34000000
   C     42.55000000    50.78000000    39.69000000
   O     43.36000000    50.68000000    40.64000000
   O     42.31000000    51.88000000    39.15000000
   H     41.94200000    49.84100000    37.22300000
   H     40.28100000    50.16900000    37.78800000
   H     40.87000000    48.50000000    37.66000000
   H     42.32000000    48.74000000    39.42000000
   H     40.87000000    49.62000000    40.09000000
   C     50.02000000    53.81000000    39.22000000
   C     48.66000000    54.40000000    38.86000000
   C     47.46000000    53.79000000    39.60000000
   C     46.12000000    54.50000000    39.60000000
   O     45.97000000    55.23000000    40.61000000
   O     45.26000000    54.14000000    38.77000000
   H     50.34500000    54.29100000    40.14200000
   H     50.70700000    53.99600000    38.39500000
   H     49.99000000    52.74000000    39.41000000
   H     48.43000000    54.10000000    37.84000000
   H     48.75000000    55.48000000    38.76000000
   H     47.79000000    53.66000000    40.63000000
   H     47.35000000    52.78000000    39.22000000
  Ca     43.20000000    54.11000000    40.49000000
   O     43.39000000    56.02000000    42.61000000
   H     43.38000000    55.75000000    43.53000000
   H     43.62000000    56.95000000    42.64000000

C O H 0
aug-cc-pVTZ 
****
@/home/pzhang5/ca_ccpvtz_basisset.gbs/N

Ca 1.70




