%Nproc=28
%chk=holo30.0.chk
%mem=80GB
%NoSave
#MP2(semidirect)/Gen scf=(tight,noincore) Test
#IOP(5/87=12) Density=Current Pop=(MK,readradii) iop(6/33=2) iop(6/42=6)

holo_loop_3_model_30.0 

   0   1
   C     29.83000000    72.82000000     9.53000000
   C     28.83000000    72.00000000     8.73000000
   C     27.85000000    72.80000000     7.87000000
   O     26.64000000    72.70000000     8.07000000
   O     28.36000000    73.44000000     6.78000000
   H     30.50800000    72.18200000    10.09700000
   H     29.31200000    73.45600000    10.24800000
   H     30.37000000    73.43000000     8.80000000
   H     28.09000000    71.62000000     9.43000000
   H     29.20000000    71.10000000     8.23000000
   H     29.32000000    73.42000000     6.81000000
   C     27.88000000    78.13000000    10.34000000
   C     28.54000000    78.99000000     9.26000000
   C     29.23000000    78.17000000     8.18000000
   O     29.16000000    76.93000000     8.06000000
   O     29.71000000    78.80000000     7.21000000
   H     28.57100000    77.36000000    10.68200000
   H     26.99200000    77.64500000     9.93500000
   H     27.60000000    78.78000000    11.17000000
   H     29.36000000    79.54000000     9.71000000
   H     27.84000000    79.71000000     8.83000000
   C     36.83000000    74.94000000     9.57000000
   C     35.42000000    74.83000000     8.99000000
   C     34.72000000    76.18000000     9.05000000
   C     33.36000000    76.19000000     8.35000000
   O     32.43000000    76.89000000     8.81000000
   O     33.25000000    75.57000000     7.27000000
   H     37.46700000    75.53300000     8.91400000
   H     37.27000000    73.94800000     9.66800000
   H     36.75000000    75.41000000    10.55000000
   H     34.92000000    74.16000000     9.69000000
   H     35.39000000    74.33000000     8.03000000
   H     35.36000000    76.80000000     8.42000000
   H     34.68000000    76.66000000    10.03000000
  Ca     31.00000000    76.59000000     6.26000000
   O     32.43000000    76.93000000     4.03000000
   H     32.34000000    76.67000000     3.12000000
   H     32.85000000    77.78000000     4.00000000

C O H 0
aug-cc-pVTZ 
****
@/home/pzhang5/ca_ccpvtz_basisset.gbs/N

Ca 1.70




