%Nproc=28
%chk=holo11.0.chk
%mem=80GB
%NoSave
#MP2(semidirect)/Gen scf=(tight,noincore) Test
#IOP(5/87=12) Density=Current Pop=(MK,readradii) iop(6/33=2) iop(6/42=6)

holo_loop_3_model_11.0 

   0   1
   C     31.28000000    72.40000000    10.43000000
   C     30.43000000    71.65000000     9.41000000
   C     29.38000000    72.46000000     8.67000000
   O     28.16000000    72.32000000     8.72000000
   O     29.99000000    73.43000000     7.93000000
   H     31.97800000    71.70100000    10.89000000
   H     30.63000000    72.83500000    11.19000000
   H     31.85000000    73.20000000     9.94000000
   H     29.80000000    70.99000000    10.00000000
   H     30.95000000    71.05000000     8.66000000
   H     30.94000000    73.28000000     7.83000000
   C     29.24000000    77.24000000    12.09000000
   C     30.26000000    78.06000000    11.30000000
   C     30.98000000    77.34000000    10.16000000
   O     31.95000000    77.99000000     9.72000000
   O     30.55000000    76.34000000     9.55000000
   H     29.79500000    76.42500000    12.55500000
   H     28.47200000    76.89500000    11.39800000
   H     28.75000000    77.78000000    12.90000000
   H     30.98000000    78.54000000    11.95000000
   H     29.68000000    78.85000000    10.84000000
   C     37.89000000    74.48000000    10.78000000
   C     36.57000000    74.27000000    10.04000000
   C     35.90000000    75.62000000     9.88000000
   C     34.67000000    75.56000000     8.98000000
   O     34.79000000    75.58000000     7.74000000
   O     33.57000000    75.44000000     9.55000000
   H     38.61300000    74.96600000    10.12500000
   H     38.29400000    73.51800000    11.09400000
   H     37.70000000    75.10000000    11.65000000
   H     35.95000000    73.55000000    10.59000000
   H     36.71000000    73.74000000     9.10000000
   H     36.52000000    76.40000000     9.43000000
   H     35.60000000    76.00000000    10.85000000
  Ca     32.27000000    76.35000000     7.60000000
   O     33.16000000    77.10000000     5.13000000
   H     33.36000000    76.59000000     4.34000000
   H     32.93000000    77.97000000     4.80000000

C O H 0
aug-cc-pVTZ 
****
@/home/pzhang5/ca_ccpvtz_basisset.gbs/N

Ca 1.70




