%chk=CaMKII_loop3_93.0.chk
%nprocshared=48
%mem=10GB
%nosave
#b3lyp/svp scf=(tight,noincore) Test 
#IOP(5/87=12) Density=Current Pop=(MK,readradii) iop(6/33=2) iop(6/42=6)

CaMKII_loop3_93.0 

   0   1
   C     62.16000000    45.90000000    38.76000000
   C     61.32000000    45.54000000    39.98000000
   O     61.70000000    44.68000000    40.78000000
   H     63.14400000    45.44000000    38.84800000
   H     61.66800000    45.53400000    37.85900000
   H     62.27000000    46.98300000    38.70100000
   N     60.10000000    46.05000000    40.13000000
   C     59.07000000    45.61000000    41.05000000
   C     58.11000000    44.52000000    40.58000000
   O     57.00000000    44.83000000    40.18000000
   C     58.42000000    46.76000000    41.80000000
   C     57.61000000    46.29000000    43.00000000
   O     56.83000000    47.11000000    43.54000000
   O     57.74000000    45.09000000    43.32000000
   H     59.81000000    46.59000000    39.33000000
   H     59.66000000    45.06000000    41.78000000
   H     57.71000000    47.33000000    41.19000000
   H     59.21000000    47.44000000    42.12000000
   N     58.57000000    43.27000000    40.72000000
   C     58.02000000    41.99000000    40.33000000
   C     56.75000000    41.57000000    41.05000000
   O     56.08000000    40.65000000    40.57000000
   C     59.11000000    40.92000000    40.35000000
   C     60.33000000    41.28000000    39.50000000
   C     59.96000000    41.39000000    38.02000000
   C     61.30000000    41.34000000    37.30000000
   N     61.10000000    41.21000000    35.85000000
   H     59.46000000    43.18000000    41.20000000
   H     57.59000000    41.97000000    39.33000000
   H     58.77000000    39.99000000    39.88000000
   H     59.37000000    40.63000000    41.36000000
   H     61.06000000    40.49000000    39.68000000
   H     60.67000000    42.26000000    39.81000000
   H     59.55000000    42.38000000    37.82000000
   H     59.31000000    40.58000000    37.69000000
   H     61.88000000    40.54000000    37.75000000
   H     61.90000000    42.24000000    37.45000000
   H     61.95000000    41.24000000    35.30000000
   H     60.71000000    40.29000000    35.69000000
   H     60.38000000    41.87000000    35.58000000
   N     56.36000000    42.26000000    42.12000000
   C     55.22000000    41.82000000    42.91000000
   C     54.44000000    43.01000000    43.45000000
   O     53.46000000    42.75000000    44.15000000
   C     55.63000000    40.72000000    43.89000000
   C     56.82000000    41.10000000    44.75000000
   O     57.59000000    40.16000000    45.03000000
   O     57.07000000    42.29000000    45.05000000
   H     57.01000000    42.94000000    42.48000000
   H     54.55000000    41.32000000    42.21000000
   H     55.95000000    39.83000000    43.34000000
   H     54.81000000    40.52000000    44.57000000
   N     54.71000000    44.23000000    42.98000000
   C     53.85000000    45.34000000    43.34000000
   C     53.58000000    45.71000000    44.79000000
   O     52.60000000    46.40000000    45.03000000
   H     55.57000000    44.34000000    42.46000000
   H     52.89000000    45.24000000    42.84000000
   H     54.32000000    46.24000000    42.94000000
   N     54.46000000    45.17000000    45.64000000
   C     54.40000000    45.54000000    47.04000000
   C     54.88000000    46.98000000    47.18000000
   O     54.65000000    47.54000000    48.25000000
   C     55.18000000    44.53000000    47.88000000
   C     56.69000000    44.40000000    47.81000000
   N     57.27000000    43.37000000    48.42000000
   O     57.36000000    45.14000000    47.10000000
   H     55.22000000    44.58000000    45.32000000
   H     53.38000000    45.51000000    47.42000000
   H     54.81000000    43.58000000    47.50000000
   H     54.92000000    44.57000000    48.94000000
   H     56.76000000    42.76000000    49.04000000
   H     58.28000000    43.28000000    48.42000000
   N     55.52000000    47.59000000    46.17000000
   C     55.88000000    48.99000000    46.06000000
   C     57.39000000    49.21000000    46.14000000
   O     57.76000000    50.38000000    46.11000000
   H     55.62000000    47.04000000    45.33000000
   H     55.44000000    49.54000000    46.89000000
   H     55.58000000    49.50000000    45.15000000
   N     58.29000000    48.24000000    46.29000000
   C     59.71000000    48.48000000    46.22000000
   C     60.52000000    47.43000000    45.48000000
   O     60.12000000    46.27000000    45.42000000
   C     60.26000000    48.78000000    47.62000000
   C     59.77000000    47.85000000    48.70000000
   C     58.64000000    48.10000000    49.48000000
   C     60.52000000    46.68000000    48.84000000
   C     58.20000000    47.15000000    50.41000000
   C     60.11000000    45.70000000    49.75000000
   C     58.98000000    45.99000000    50.56000000
   O     58.67000000    45.02000000    51.46000000
   H     57.88000000    47.32000000    46.40000000
   H     59.75000000    49.43000000    45.68000000
   H     60.10000000    49.78000000    48.01000000
   H     61.34000000    48.61000000    47.50000000
   H     57.99000000    48.93000000    49.23000000
   H     61.44000000    46.46000000    48.32000000
   H     57.33000000    47.39000000    51.00000000
   H     60.65000000    44.77000000    49.83000000
   H     59.34000000    44.34000000    51.41000000
   N     61.69000000    47.79000000    44.96000000
   C     62.68000000    46.91000000    44.36000000
   C     63.68000000    46.40000000    45.39000000
   O     64.19000000    47.08000000    46.27000000
   C     63.39000000    47.66000000    43.24000000
   C     62.44000000    48.29000000    42.23000000
   C     64.31000000    46.67000000    42.53000000
   C     63.08000000    49.44000000    41.46000000
   H     61.90000000    48.77000000    45.12000000
   H     62.17000000    46.06000000    43.91000000
   H     64.00000000    48.47000000    43.66000000
   H     61.53000000    48.68000000    42.69000000
   H     61.92000000    47.73000000    41.45000000
   H     65.18000000    46.32000000    43.08000000
   H     63.78000000    45.80000000    42.16000000
   H     64.78000000    47.17000000    41.68000000
   H     63.23000000    50.26000000    42.15000000
   H     63.99000000    49.03000000    41.01000000
   H     62.40000000    49.77000000    40.67000000
   N     64.01000000    45.12000000    45.18000000
   C     64.94000000    44.35000000    45.98000000
   C     66.03000000    43.66000000    45.16000000
   O     65.97000000    43.55000000    43.94000000
   C     64.09000000    43.28000000    46.66000000
   O     63.56000000    42.35000000    45.74000000
   H     63.51000000    44.70000000    44.41000000
   H     65.39000000    45.01000000    46.71000000
   H     63.31000000    43.81000000    47.20000000
   H     64.73000000    42.87000000    47.45000000
   H     63.10000000    42.82000000    45.04000000
   N     67.05000000    43.11000000    45.82000000
   C     68.22000000    42.49000000    45.22000000
   C     67.86000000    41.19000000    44.51000000
   O     68.42000000    40.88000000    43.46000000
   C     69.29000000    42.16000000    46.26000000
   H     67.18000000    43.25000000    46.81000000
   H     68.78000000    43.07000000    44.49000000
   H     68.96000000    41.46000000    47.03000000
   H     70.17000000    41.80000000    45.72000000
   H     69.51000000    43.16000000    46.61000000
   N     66.83000000    40.46000000    44.95000000
   C     66.39000000    39.27000000    44.24000000
   C     65.66000000    39.58000000    42.93000000
   O     65.81000000    38.87000000    41.94000000
   C     65.51000000    38.49000000    45.20000000
   H     66.47000000    40.60000000    45.88000000
   H     67.25000000    38.63000000    44.06000000
   H     64.64000000    39.09000000    45.47000000
   H     65.15000000    37.59000000    44.71000000
   H     65.96000000    38.21000000    46.15000000
   N     64.93000000    40.69000000    42.89000000
   C     64.36000000    41.15000000    41.64000000
   C     65.41000000    41.66000000    40.67000000
   O     65.48000000    41.18000000    39.54000000
   C     63.23000000    42.15000000    41.91000000
   C     62.07000000    41.63000000    42.75000000
   C     61.21000000    42.74000000    43.36000000
   O     59.98000000    42.69000000    43.19000000
   O     61.72000000    43.39000000    44.31000000
   H     64.94000000    41.33000000    43.68000000
   H     63.98000000    40.25000000    41.15000000
   H     62.85000000    42.54000000    40.97000000
   H     63.61000000    42.99000000    42.49000000
   H     62.47000000    41.07000000    43.60000000
   H     61.51000000    40.93000000    42.13000000
   N     66.33000000    42.51000000    41.14000000
   C     67.36000000    43.19000000    40.38000000
   H     68.27100000    42.59100000    40.38600000
   H     67.02300000    43.32700000    39.35200000
   H     67.56200000    44.16200000    40.83000000
   H     66.21000000    42.92000000    42.06000000
  Ca     59.05000000    43.90000000    45.34000000
   O     59.00000000    41.66000000    46.80000000
   H     58.57000000    41.31000000    47.58000000
   H     58.77000000    41.04000000    46.10000000

Ca 1.70



