%chk=CaMKII_loop3_67.0.chk
%nprocshared=48
%mem=10GB
%nosave
#b3lyp/svp scf=(tight,noincore) Test 
#IOP(5/87=12) Density=Current Pop=(MK,readradii) iop(6/33=2) iop(6/42=6)

CaMKII_loop3_67.0 

   0   1
   C     76.96000000    49.53000000    27.87000000
   C     76.06000000    48.70000000    28.77000000
   O     76.46000000    47.58000000    29.11000000
   H     77.92300000    49.03200000    27.76100000
   H     76.49500000    49.63800000    26.89000000
   H     77.10900000    50.51500000    28.31300000
   N     74.88000000    49.17000000    29.18000000
   C     73.84000000    48.45000000    29.89000000
   C     73.29000000    47.39000000    28.94000000
   O     72.91000000    47.77000000    27.84000000
   C     72.83000000    49.47000000    30.42000000
   C     71.77000000    48.78000000    31.26000000
   O     71.56000000    47.56000000    31.05000000
   O     71.21000000    49.37000000    32.21000000
   H     74.55000000    50.06000000    28.83000000
   H     74.31000000    48.02000000    30.77000000
   H     72.24000000    49.93000000    29.63000000
   H     73.34000000    50.20000000    31.05000000
   N     73.26000000    46.09000000    29.26000000
   C     72.68000000    45.02000000    28.48000000
   C     71.17000000    44.99000000    28.29000000
   O     70.73000000    44.26000000    27.40000000
   C     73.26000000    43.71000000    29.00000000
   C     73.55000000    42.59000000    28.01000000
   C     74.14000000    41.31000000    28.58000000
   C     73.86000000    40.12000000    27.67000000
   N     72.41000000    39.87000000    27.54000000
   H     73.78000000    45.88000000    30.10000000
   H     73.03000000    45.25000000    27.47000000
   H     72.53000000    43.30000000    29.70000000
   H     74.16000000    43.92000000    29.58000000
   H     74.18000000    42.99000000    27.21000000
   H     72.62000000    42.31000000    27.51000000
   H     73.71000000    41.18000000    29.57000000
   H     75.22000000    41.32000000    28.78000000
   H     74.41000000    39.22000000    27.95000000
   H     74.35000000    40.27000000    26.71000000
   H     71.99000000    39.70000000    28.44000000
   H     71.95000000    40.69000000    27.15000000
   H     72.31000000    39.10000000    26.89000000
   N     70.39000000    45.72000000    29.08000000
   C     68.94000000    45.76000000    29.03000000
   C     68.34000000    47.16000000    29.07000000
   O     67.19000000    47.39000000    28.70000000
   C     68.35000000    44.90000000    30.15000000
   C     68.63000000    45.25000000    31.60000000
   O     68.99000000    46.40000000    31.97000000
   O     68.33000000    44.43000000    32.50000000
   H     70.87000000    46.25000000    29.79000000
   H     68.58000000    45.49000000    28.04000000
   H     68.56000000    43.84000000    30.01000000
   H     67.29000000    44.97000000    29.92000000
   N     69.14000000    48.12000000    29.53000000
   C     68.78000000    49.52000000    29.45000000
   C     67.76000000    50.04000000    30.44000000
   O     67.04000000    51.02000000    30.25000000
   H     70.07000000    47.99000000    29.92000000
   H     68.60000000    49.82000000    28.41000000
   H     69.74000000    50.01000000    29.62000000
   N     67.70000000    49.28000000    31.54000000
   C     66.95000000    49.71000000    32.70000000
   C     67.54000000    50.87000000    33.47000000
   O     66.96000000    51.30000000    34.47000000
   C     66.76000000    48.55000000    33.68000000
   C     67.94000000    48.24000000    34.59000000
   N     67.56000000    47.51000000    35.64000000
   O     69.13000000    48.45000000    34.37000000
   H     68.25000000    48.44000000    31.62000000
   H     65.94000000    50.03000000    32.44000000
   H     66.43000000    47.65000000    33.16000000
   H     65.96000000    48.76000000    34.39000000
   H     66.60000000    47.41000000    35.93000000
   H     68.31000000    47.21000000    36.24000000
   N     68.69000000    51.46000000    33.11000000
   C     69.35000000    52.58000000    33.74000000
   C     70.58000000    52.33000000    34.60000000
   O     70.91000000    53.21000000    35.39000000
   H     69.19000000    51.05000000    32.34000000
   H     68.63000000    53.08000000    34.40000000
   H     69.67000000    53.25000000    32.94000000
   N     71.14000000    51.12000000    34.54000000
   C     72.24000000    50.67000000    35.36000000
   C     73.15000000    49.71000000    34.62000000
   O     72.90000000    48.52000000    34.45000000
   C     71.80000000    50.02000000    36.67000000
   C     71.15000000    50.91000000    37.71000000
   C     71.98000000    51.55000000    38.63000000
   C     69.76000000    50.87000000    37.90000000
   C     71.37000000    52.43000000    39.53000000
   C     69.19000000    51.74000000    38.84000000
   C     69.97000000    52.56000000    39.67000000
   O     69.44000000    53.53000000    40.47000000
   H     70.78000000    50.43000000    33.89000000
   H     72.89000000    51.51000000    35.61000000
   H     72.62000000    49.47000000    37.14000000
   H     71.09000000    49.23000000    36.47000000
   H     73.03000000    51.51000000    38.41000000
   H     69.14000000    50.34000000    37.19000000
   H     72.01000000    53.08000000    40.12000000
   H     68.12000000    51.85000000    38.77000000
   H     68.48000000    53.57000000    40.43000000
   N     74.33000000    50.16000000    34.19000000
   C     75.35000000    49.21000000    33.83000000
   C     75.77000000    48.48000000    35.10000000
   O     76.08000000    49.07000000    36.13000000
   C     76.51000000    49.96000000    33.18000000
   C     76.14000000    51.05000000    32.17000000
   C     77.47000000    48.98000000    32.50000000
   C     77.26000000    52.07000000    31.97000000
   H     74.65000000    51.01000000    34.65000000
   H     75.05000000    48.45000000    33.11000000
   H     77.01000000    50.42000000    34.03000000
   H     75.35000000    51.67000000    32.59000000
   H     75.74000000    50.54000000    31.30000000
   H     77.55000000    48.10000000    33.13000000
   H     77.09000000    48.74000000    31.50000000
   H     78.46000000    49.43000000    32.40000000
   H     76.82000000    52.72000000    31.21000000
   H     77.36000000    52.56000000    32.94000000
   H     78.16000000    51.57000000    31.61000000
   N     75.65000000    47.15000000    35.00000000
   C     76.27000000    46.28000000    35.98000000
   C     77.69000000    45.86000000    35.63000000
   O     78.05000000    45.98000000    34.47000000
   C     75.37000000    45.06000000    36.18000000
   O     75.86000000    43.99000000    35.41000000
   H     75.25000000    46.76000000    34.16000000
   H     76.24000000    46.73000000    36.97000000
   H     74.34000000    45.35000000    35.98000000
   H     75.42000000    44.62000000    37.18000000
   H     75.47000000    43.18000000    35.75000000
   N     78.47000000    45.32000000    36.57000000
   C     79.81000000    44.93000000    36.19000000
   C     79.88000000    43.84000000    35.13000000
   O     80.65000000    43.88000000    34.18000000
   C     80.67000000    44.55000000    37.39000000
   H     78.09000000    45.12000000    37.49000000
   H     80.21000000    45.84000000    35.73000000
   H     80.25000000    43.59000000    37.71000000
   H     81.71000000    44.56000000    37.09000000
   H     80.42000000    45.30000000    38.15000000
   N     79.01000000    42.82000000    35.12000000
   C     78.93000000    41.79000000    34.10000000
   C     78.38000000    42.31000000    32.78000000
   O     78.83000000    41.89000000    31.72000000
   C     77.94000000    40.73000000    34.59000000
   H     78.34000000    42.85000000    35.88000000
   H     79.85000000    41.24000000    33.90000000
   H     77.79000000    39.91000000    33.89000000
   H     78.33000000    40.27000000    35.50000000
   H     76.93000000    41.11000000    34.74000000
   N     77.40000000    43.21000000    32.82000000
   C     76.92000000    43.90000000    31.64000000
   C     78.05000000    44.74000000    31.05000000
   O     78.22000000    44.69000000    29.84000000
   C     75.76000000    44.85000000    31.90000000
   C     74.47000000    44.12000000    32.26000000
   C     73.32000000    45.10000000    32.44000000
   O     72.12000000    44.88000000    32.20000000
   O     73.57000000    46.22000000    32.93000000
   H     76.90000000    43.47000000    33.66000000
   H     76.59000000    43.17000000    30.90000000
   H     75.67000000    45.43000000    30.98000000
   H     75.99000000    45.56000000    32.69000000
   H     74.61000000    43.61000000    33.21000000
   H     74.31000000    43.43000000    31.43000000
   N     78.84000000    45.44000000    31.87000000
   C     80.08000000    46.06000000    31.47000000
   H     80.86400000    45.30400000    31.41900000
   H     79.95700000    46.52100000    30.49000000
   H     80.35800000    46.82200000    32.19800000
   H     78.52000000    45.52000000    32.83000000
  Ca     71.11000000    46.90000000    33.55000000
   O     69.74000000    44.93000000    34.68000000
   H     69.93000000    44.11000000    35.14000000
   H     69.19000000    44.68000000    33.95000000

Ca 1.70



