%chk=CaMKII_loop3_111.0.chk
%nprocshared=48
%mem=10GB
%nosave
#b3lyp/svp scf=(tight,noincore) Test 
#IOP(5/87=12) Density=Current Pop=(MK,readradii) iop(6/33=2) iop(6/42=6)

CaMKII_loop3_111.0 

   0   1
   C     27.98000000    37.22000000     5.60000000
   C     28.95000000    36.09000000     5.27000000
   O     29.98000000    36.40000000     4.66000000
   H     27.05000000    36.80000000     5.98400000
   H     28.42200000    37.87100000     6.35400000
   H     27.77300000    37.79700000     4.69900000
   N     28.73000000    34.87000000     5.75000000
   C     29.49000000    33.68000000     5.42000000
   C     29.05000000    33.02000000     4.13000000
   O     27.99000000    32.41000000     4.13000000
   C     29.54000000    32.68000000     6.57000000
   C     30.41000000    31.46000000     6.31000000
   O     30.42000000    30.57000000     7.19000000
   O     31.17000000    31.34000000     5.33000000
   H     27.88000000    34.71000000     6.28000000
   H     30.49000000    34.08000000     5.25000000
   H     28.53000000    32.30000000     6.73000000
   H     29.70000000    33.17000000     7.53000000
   N     29.85000000    33.07000000     3.06000000
   C     29.61000000    32.52000000     1.74000000
   C     29.81000000    31.04000000     1.46000000
   O     28.90000000    30.42000000     0.92000000
   C     30.24000000    33.44000000     0.69000000
   C     29.40000000    33.41000000    -0.59000000
   C     30.07000000    34.38000000    -1.57000000
   C     29.28000000    34.52000000    -2.87000000
   N     29.49000000    33.38000000    -3.77000000
   H     30.73000000    33.54000000     3.22000000
   H     28.54000000    32.70000000     1.63000000
   H     31.27000000    33.18000000     0.43000000
   H     30.15000000    34.47000000     1.02000000
   H     28.40000000    33.66000000    -0.24000000
   H     29.26000000    32.43000000    -1.03000000
   H     31.09000000    34.08000000    -1.78000000
   H     30.07000000    35.35000000    -1.08000000
   H     29.62000000    35.35000000    -3.49000000
   H     28.23000000    34.69000000    -2.60000000
   H     30.43000000    33.46000000    -4.13000000
   H     29.46000000    32.42000000    -3.45000000
   H     28.99000000    33.50000000    -4.64000000
   N     30.92000000    30.47000000     1.94000000
   C     31.02000000    29.03000000     1.97000000
   C     30.30000000    28.34000000     3.12000000
   O     30.16000000    27.12000000     3.04000000
   C     32.49000000    28.67000000     1.79000000
   C     33.36000000    29.22000000     2.91000000
   O     33.00000000    28.93000000     4.07000000
   O     34.35000000    29.96000000     2.75000000
   H     31.60000000    31.02000000     2.45000000
   H     30.51000000    28.72000000     1.05000000
   H     32.79000000    29.06000000     0.82000000
   H     32.52000000    27.58000000     1.76000000
   N     29.77000000    29.05000000     4.12000000
   C     28.99000000    28.54000000     5.23000000
   C     29.73000000    27.61000000     6.18000000
   O     29.10000000    26.72000000     6.75000000
   H     29.84000000    30.03000000     3.90000000
   H     28.17000000    27.99000000     4.79000000
   H     28.47000000    29.31000000     5.80000000
   N     31.06000000    27.69000000     6.29000000
   C     31.90000000    26.93000000     7.19000000
   C     31.77000000    27.31000000     8.66000000
   O     32.33000000    26.57000000     9.47000000
   C     33.38000000    26.87000000     6.82000000
   C     34.26000000    28.11000000     6.99000000
   N     35.55000000    27.91000000     6.75000000
   O     33.90000000    29.23000000     7.33000000
   H     31.46000000    28.34000000     5.63000000
   H     31.54000000    25.91000000     7.19000000
   H     33.50000000    26.65000000     5.76000000
   H     33.83000000    26.06000000     7.39000000
   H     35.96000000    26.98000000     6.78000000
   H     36.15000000    28.67000000     7.04000000
   N     31.10000000    28.42000000     8.99000000
   C     31.09000000    29.00000000    10.32000000
   C     32.07000000    30.13000000    10.57000000
   O     32.30000000    30.44000000    11.74000000
   H     30.77000000    28.98000000     8.22000000
   H     31.23000000    28.25000000    11.10000000
   H     30.10000000    29.42000000    10.50000000
   N     32.77000000    30.65000000     9.56000000
   C     33.63000000    31.80000000     9.78000000
   C     33.38000000    32.71000000     8.59000000
   O     33.57000000    32.28000000     7.46000000
   C     35.09000000    31.35000000     9.74000000
   C     35.58000000    30.23000000    10.62000000
   C     35.40000000    30.35000000    12.01000000
   C     36.54000000    29.36000000    10.09000000
   C     36.06000000    29.40000000    12.81000000
   C     37.20000000    28.42000000    10.89000000
   C     36.95000000    28.46000000    12.27000000
   O     37.52000000    27.54000000    13.11000000
   H     32.66000000    30.37000000     8.60000000
   H     33.37000000    32.33000000    10.70000000
   H     35.72000000    32.23000000     9.85000000
   H     35.32000000    30.94000000     8.75000000
   H     34.70000000    31.07000000    12.40000000
   H     36.82000000    29.41000000     9.05000000
   H     35.81000000    29.53000000    13.85000000
   H     38.00000000    27.75000000    10.62000000
   H     37.18000000    27.59000000    14.01000000
   N     33.30000000    34.03000000     8.78000000
   C     33.45000000    35.05000000     7.76000000
   C     34.89000000    35.48000000     7.51000000
   O     35.62000000    35.86000000     8.42000000
   C     32.65000000    36.27000000     8.22000000
   C     31.18000000    35.91000000     8.36000000
   C     32.69000000    37.44000000     7.25000000
   C     30.47000000    36.85000000     9.33000000
   H     33.30000000    34.43000000     9.71000000
   H     33.08000000    34.69000000     6.80000000
   H     32.97000000    36.51000000     9.23000000
   H     31.02000000    34.95000000     8.85000000
   H     30.77000000    35.83000000     7.35000000
   H     33.70000000    37.73000000     6.94000000
   H     32.27000000    37.04000000     6.33000000
   H     32.18000000    38.37000000     7.52000000
   H     30.98000000    36.86000000    10.30000000
   H     30.50000000    37.86000000     8.92000000
   H     29.43000000    36.60000000     9.51000000
   N     35.20000000    35.60000000     6.22000000
   C     36.50000000    36.13000000     5.85000000
   C     36.33000000    37.38000000     5.00000000
   O     35.24000000    37.64000000     4.51000000
   C     37.27000000    35.12000000     5.00000000
   O     36.64000000    34.81000000     3.78000000
   H     34.58000000    35.32000000     5.47000000
   H     37.15000000    36.37000000     6.69000000
   H     37.53000000    34.19000000     5.51000000
   H     38.21000000    35.60000000     4.73000000
   H     35.94000000    34.22000000     4.07000000
   N     37.36000000    38.22000000     4.85000000
   C     37.43000000    39.44000000     4.06000000
   C     36.60000000    39.37000000     2.79000000
   O     35.78000000    40.26000000     2.56000000
   C     38.89000000    39.87000000     3.99000000
   H     38.21000000    37.89000000     5.27000000
   H     36.94000000    40.24000000     4.62000000
   H     39.26000000    40.08000000     5.00000000
   H     39.48000000    39.07000000     3.55000000
   H     39.00000000    40.64000000     3.23000000
   N     36.88000000    38.39000000     1.93000000
   C     36.39000000    38.22000000     0.58000000
   C     34.91000000    37.87000000     0.63000000
   O     34.18000000    37.92000000    -0.36000000
   C     37.18000000    37.17000000    -0.19000000
   H     37.60000000    37.73000000     2.19000000
   H     36.48000000    39.20000000     0.11000000
   H     37.03000000    37.20000000    -1.27000000
   H     38.24000000    37.34000000     0.02000000
   H     36.99000000    36.17000000     0.22000000
   N     34.40000000    37.45000000     1.79000000
   C     33.01000000    37.19000000     2.09000000
   C     32.31000000    38.47000000     2.52000000
   O     31.23000000    38.80000000     2.03000000
   C     32.83000000    35.99000000     3.01000000
   C     33.34000000    34.65000000     2.48000000
   C     33.47000000    33.54000000     3.51000000
   O     32.88000000    32.45000000     3.37000000
   O     34.19000000    33.61000000     4.53000000
   H     35.01000000    37.31000000     2.59000000
   H     32.45000000    36.99000000     1.18000000
   H     31.75000000    36.03000000     3.07000000
   H     33.47000000    36.26000000     3.86000000
   H     34.33000000    34.92000000     2.11000000
   H     32.78000000    34.27000000     1.62000000
   N     32.91000000    39.28000000     3.40000000
   C     32.39000000    40.54000000     3.88000000
   H     31.40300000    40.38300000     4.31500000
   H     33.06100000    40.94500000     4.63800000
   H     32.31200000    41.24200000     3.05000000
   H     33.79000000    38.99000000     3.80000000
  Ca     33.80000000    31.09000000     5.26000000
   O     36.37000000    31.14000000     5.11000000
   H     37.16000000    31.02000000     4.59000000
   H     36.69000000    31.35000000     5.99000000

Ca 1.70



