%chk=CaMKII_loop3_76.0.chk
%nprocshared=48
%mem=10GB
%nosave
#b3lyp/svp scf=(tight,noincore) Test 
#IOP(5/87=12) Density=Current Pop=(MK,readradii) iop(6/33=2) iop(6/42=6)

CaMKII_loop3_76.0 

   0   1
   C     60.93000000    45.71000000    40.36000000
   C     60.06000000    45.25000000    41.53000000
   O     60.13000000    44.11000000    41.97000000
   H     61.90800000    45.23200000    40.42500000
   H     60.45300000    45.43200000    39.42000000
   H     61.05200000    46.79200000    40.40000000
   N     59.11000000    46.11000000    41.92000000
   C     58.20000000    45.85000000    43.01000000
   C     57.10000000    44.86000000    42.67000000
   O     55.99000000    45.26000000    42.33000000
   C     57.76000000    47.21000000    43.55000000
   C     56.76000000    47.05000000    44.69000000
   O     55.97000000    47.97000000    44.99000000
   O     56.98000000    46.07000000    45.45000000
   H     59.02000000    47.02000000    41.50000000
   H     58.77000000    45.31000000    43.77000000
   H     57.31000000    47.84000000    42.79000000
   H     58.55000000    47.84000000    43.96000000
   N     57.43000000    43.56000000    42.73000000
   C     56.59000000    42.53000000    42.15000000
   C     55.26000000    42.39000000    42.86000000
   O     54.21000000    42.20000000    42.24000000
   C     57.38000000    41.22000000    42.08000000
   C     58.78000000    41.20000000    41.47000000
   C     58.90000000    41.57000000    39.99000000
   C     60.29000000    41.51000000    39.39000000
   N     60.19000000    41.50000000    37.92000000
   H     58.33000000    43.32000000    43.12000000
   H     56.40000000    42.92000000    41.15000000
   H     56.73000000    40.54000000    41.54000000
   H     57.46000000    40.90000000    43.12000000
   H     59.03000000    40.16000000    41.63000000
   H     59.60000000    41.63000000    42.04000000
   H     58.28000000    42.40000000    39.65000000
   H     58.34000000    40.77000000    39.50000000
   H     60.75000000    40.62000000    39.83000000
   H     60.84000000    42.37000000    39.78000000
   H     61.08000000    41.26000000    37.50000000
   H     59.51000000    40.81000000    37.65000000
   H     59.75000000    42.30000000    37.49000000
   N     55.22000000    42.60000000    44.18000000
   C     54.01000000    42.45000000    44.96000000
   C     53.23000000    43.75000000    45.06000000
   O     52.01000000    43.74000000    45.18000000
   C     54.26000000    41.76000000    46.30000000
   C     55.18000000    42.46000000    47.29000000
   O     55.51000000    41.85000000    48.33000000
   O     55.61000000    43.61000000    47.03000000
   H     56.16000000    42.75000000    44.49000000
   H     53.28000000    41.77000000    44.51000000
   H     54.59000000    40.75000000    46.09000000
   H     53.32000000    41.60000000    46.84000000
   N     53.94000000    44.88000000    45.01000000
   C     53.27000000    46.16000000    45.15000000
   C     53.12000000    46.59000000    46.61000000
   O     52.14000000    47.20000000    47.02000000
   H     54.93000000    44.87000000    44.80000000
   H     52.23000000    46.09000000    44.85000000
   H     53.81000000    46.91000000    44.58000000
   N     54.23000000    46.36000000    47.32000000
   C     54.38000000    46.77000000    48.70000000
   C     55.24000000    48.02000000    48.85000000
   O     55.43000000    48.45000000    49.99000000
   C     54.81000000    45.63000000    49.62000000
   C     56.30000000    45.34000000    49.66000000
   N     56.71000000    44.37000000    50.49000000
   O     57.10000000    45.91000000    48.92000000
   H     54.95000000    45.74000000    46.99000000
   H     53.41000000    47.05000000    49.12000000
   H     54.36000000    44.67000000    49.36000000
   H     54.63000000    45.94000000    50.65000000
   H     55.98000000    43.82000000    50.92000000
   H     57.65000000    44.02000000    50.50000000
   N     55.55000000    48.77000000    47.79000000
   C     55.97000000    50.16000000    47.77000000
   C     57.46000000    50.35000000    47.57000000
   O     57.94000000    51.43000000    47.25000000
   H     55.36000000    48.32000000    46.90000000
   H     55.71000000    50.65000000    48.71000000
   H     55.46000000    50.71000000    46.98000000
   N     58.19000000    49.27000000    47.86000000
   C     59.63000000    49.12000000    47.93000000
   C     60.25000000    47.87000000    47.32000000
   O     59.55000000    46.89000000    47.05000000
   C     60.19000000    49.26000000    49.34000000
   C     59.91000000    48.26000000    50.43000000
   C     58.68000000    48.23000000    51.11000000
   C     60.82000000    47.21000000    50.58000000
   C     58.49000000    47.24000000    52.09000000
   C     60.59000000    46.17000000    51.49000000
   C     59.45000000    46.23000000    52.32000000
   O     59.22000000    45.27000000    53.26000000
   H     57.68000000    48.47000000    48.23000000
   H     60.05000000    50.01000000    47.48000000
   H     59.89000000    50.26000000    49.65000000
   H     61.27000000    49.39000000    49.24000000
   H     57.90000000    48.92000000    50.84000000
   H     61.78000000    47.22000000    50.08000000
   H     57.59000000    47.29000000    52.68000000
   H     61.35000000    45.43000000    51.63000000
   H     59.92000000    44.61000000    53.33000000
   N     61.51000000    48.05000000    46.91000000
   C     62.26000000    47.04000000    46.20000000
   C     63.06000000    46.30000000    47.26000000
   O     63.79000000    46.92000000    48.04000000
   C     63.21000000    47.63000000    45.16000000
   C     62.53000000    48.49000000    44.09000000
   C     64.22000000    46.65000000    44.57000000
   C     63.46000000    49.20000000    43.11000000
   H     61.94000000    48.93000000    47.14000000
   H     61.59000000    46.34000000    45.69000000
   H     63.81000000    48.36000000    45.71000000
   H     61.92000000    49.27000000    44.54000000
   H     61.82000000    47.83000000    43.59000000
   H     64.95000000    46.32000000    45.31000000
   H     63.75000000    45.82000000    44.04000000
   H     64.94000000    47.18000000    43.96000000
   H     64.31000000    49.60000000    43.65000000
   H     63.78000000    48.46000000    42.37000000
   H     62.86000000    49.95000000    42.59000000
   N     63.05000000    44.97000000    47.26000000
   C     63.88000000    44.13000000    48.10000000
   C     65.18000000    43.82000000    47.37000000
   O     65.29000000    43.78000000    46.15000000
   C     63.26000000    42.83000000    48.61000000
   O     63.01000000    41.91000000    47.56000000
   H     62.49000000    44.47000000    46.58000000
   H     64.12000000    44.68000000    49.01000000
   H     62.26000000    43.09000000    48.95000000
   H     63.91000000    42.28000000    49.29000000
   H     62.23000000    41.42000000    47.84000000
   N     66.20000000    43.47000000    48.15000000
   C     67.34000000    42.74000000    47.61000000
   C     67.06000000    41.46000000    46.83000000
   O     67.74000000    41.24000000    45.83000000
   C     68.37000000    42.44000000    48.70000000
   H     66.02000000    43.46000000    49.14000000
   H     67.77000000    43.46000000    46.92000000
   H     68.58000000    43.36000000    49.24000000
   H     68.02000000    41.68000000    49.40000000
   H     69.32000000    42.09000000    48.29000000
   N     66.09000000    40.61000000    47.17000000
   C     65.66000000    39.50000000    46.34000000
   C     64.99000000    39.94000000    45.05000000
   O     65.23000000    39.28000000    44.05000000
   C     64.81000000    38.61000000    47.24000000
   H     65.42000000    40.90000000    47.87000000
   H     66.57000000    38.94000000    46.10000000
   H     64.00000000    39.30000000    47.48000000
   H     64.48000000    37.67000000    46.79000000
   H     65.45000000    38.45000000    48.11000000
   N     64.09000000    40.94000000    45.05000000
   C     63.56000000    41.57000000    43.86000000
   C     64.64000000    42.19000000    42.98000000
   O     64.70000000    41.97000000    41.78000000
   C     62.50000000    42.61000000    44.22000000
   C     61.17000000    42.03000000    44.69000000
   C     60.16000000    43.08000000    45.11000000
   O     58.93000000    42.83000000    45.01000000
   O     60.49000000    44.15000000    45.67000000
   H     63.84000000    41.29000000    45.96000000
   H     63.11000000    40.77000000    43.29000000
   H     62.32000000    43.26000000    43.37000000
   H     62.91000000    43.17000000    45.06000000
   H     61.32000000    41.34000000    45.53000000
   H     60.80000000    41.40000000    43.89000000
   N     65.68000000    42.86000000    43.48000000
   C     66.80000000    43.31000000    42.67000000
   H     67.67500000    42.69800000    42.88900000
   H     66.54600000    43.21600000    41.61400000
   H     67.02000000    44.35200000    42.90000000
   H     65.71000000    42.99000000    44.48000000
  Ca     58.28000000    44.58000000    46.98000000
   O     59.84000000    44.40000000    49.15000000
   H     60.06000000    45.14000000    49.72000000
   H     59.77000000    43.65000000    49.74000000

Ca 1.70



