%chk=CaMKII_loop3_73.0.chk
%nprocshared=48
%mem=10GB
%nosave
#b3lyp/svp scf=(tight,noincore) Test 
#IOP(5/87=12) Density=Current Pop=(MK,readradii) iop(6/33=2) iop(6/42=6)

CaMKII_loop3_73.0 

   0   1
   C     82.01700000    66.58000000    36.20000000
   C     81.43700000    66.56000000    37.61000000
   O     81.51700000    65.53000000    38.26000000
   H     83.03700000    66.19700000    36.22200000
   H     81.40800000    65.95400000    35.54700000
   H     82.02200000    67.60300000    35.82300000
   N     80.83700000    67.62000000    38.16000000
   C     80.03700000    67.52000000    39.37000000
   C     78.80700000    66.64000000    39.19000000
   O     78.11700000    66.65000000    38.18000000
   C     79.79700000    68.95000000    39.84000000
   C     79.24700000    69.15000000    41.24000000
   O     79.18700000    68.18000000    42.03000000
   O     78.66700000    70.24000000    41.45000000
   H     80.89700000    68.51000000    37.70000000
   H     80.66700000    67.08000000    40.15000000
   H     79.15700000    69.48000000    39.13000000
   H     80.75700000    69.46000000    39.78000000
   N     78.50700000    65.86000000    40.23000000
   C     77.60700000    64.72000000    40.23000000
   C     76.34700000    64.92000000    41.06000000
   O     75.33700000    64.38000000    40.61000000
   C     78.45700000    63.47000000    40.41000000
   C     77.66700000    62.18000000    40.16000000
   C     78.44700000    60.88000000    40.29000000
   C     78.28700000    60.43000000    41.73000000
   N     79.00700000    59.17000000    41.97000000
   H     79.08700000    66.05000000    41.03000000
   H     77.29700000    64.49000000    39.21000000
   H     78.87700000    63.56000000    41.41000000
   H     79.30700000    63.53000000    39.74000000
   H     77.31700000    62.26000000    39.14000000
   H     76.86700000    62.14000000    40.90000000
   H     79.47700000    61.07000000    39.97000000
   H     78.09700000    60.17000000    39.54000000
   H     77.20700000    60.44000000    41.92000000
   H     78.59700000    61.20000000    42.43000000
   H     78.72700000    58.76000000    42.85000000
   H     78.66700000    58.47000000    41.32000000
   H     80.00700000    59.27000000    41.97000000
   N     76.49700000    65.52000000    42.24000000
   C     75.42700000    65.86000000    43.15000000
   C     75.09700000    67.35000000    43.10000000
   O     74.13700000    67.84000000    43.69000000
   C     75.67700000    65.37000000    44.57000000
   C     76.97700000    65.81000000    45.24000000
   O     77.74700000    66.64000000    44.71000000
   O     77.26700000    65.26000000    46.32000000
   H     77.40700000    65.75000000    42.62000000
   H     74.55700000    65.33000000    42.76000000
   H     75.66700000    64.28000000    44.54000000
   H     74.85700000    65.75000000    45.19000000
   N     75.94700000    68.12000000    42.43000000
   C     75.60700000    69.42000000    41.89000000
   C     75.69700000    70.64000000    42.79000000
   O     75.28700000    71.75000000    42.45000000
   H     76.88700000    67.76000000    42.34000000
   H     74.59700000    69.42000000    41.46000000
   H     76.26700000    69.73000000    41.08000000
   N     76.23700000    70.49000000    44.00000000
   C     76.51700000    71.56000000    44.93000000
   C     77.33700000    72.75000000    44.43000000
   O     77.17700000    73.84000000    44.98000000
   C     77.16700000    71.00000000    46.19000000
   C     78.67700000    70.85000000    46.08000000
   N     79.42700000    71.42000000    47.02000000
   O     79.13700000    70.10000000    45.22000000
   H     76.68700000    69.61000000    44.20000000
   H     75.59700000    72.02000000    45.29000000
   H     76.67700000    70.04000000    46.31000000
   H     76.92700000    71.59000000    47.08000000
   H     79.01700000    71.95000000    47.78000000
   H     80.42700000    71.48000000    46.93000000
   N     78.10700000    72.57000000    43.36000000
   C     78.89700000    73.64000000    42.78000000
   C     80.38700000    73.38000000    42.93000000
   O     81.14700000    74.31000000    42.67000000
   H     78.03700000    71.67000000    42.89000000
   H     78.65700000    74.61000000    43.22000000
   H     78.68700000    73.58000000    41.71000000
   N     80.85700000    72.20000000    43.34000000
   C     82.25700000    71.84000000    43.20000000
   C     82.46700000    70.35000000    42.96000000
   O     81.63700000    69.53000000    43.36000000
   C     83.05700000    72.36000000    44.39000000
   C     82.43700000    72.49000000    45.76000000
   C     81.78700000    73.70000000    46.05000000
   C     82.76700000    71.58000000    46.77000000
   C     81.47700000    74.00000000    47.38000000
   C     82.32700000    71.79000000    48.08000000
   C     81.72700000    73.03000000    48.37000000
   O     81.38700000    73.27000000    49.67000000
   H     80.14700000    71.49000000    43.46000000
   H     82.61700000    72.31000000    42.28000000
   H     83.29700000    73.39000000    44.15000000
   H     83.98700000    71.79000000    44.40000000
   H     81.70700000    74.43000000    45.26000000
   H     83.20700000    70.61000000    46.61000000
   H     81.00700000    74.93000000    47.67000000
   H     82.50700000    71.04000000    48.84000000
   H     81.79700000    72.70000000    50.32000000
   N     83.61700000    70.04000000    42.38000000
   C     84.07700000    68.69000000    42.11000000
   C     84.96700000    68.13000000    43.21000000
   O     85.99700000    68.73000000    43.51000000
   C     84.83700000    68.70000000    40.79000000
   C     84.04700000    69.32000000    39.64000000
   C     85.33700000    67.31000000    40.42000000
   C     84.82700000    69.81000000    38.42000000
   H     84.33700000    70.75000000    42.28000000
   H     83.13700000    68.13000000    42.03000000
   H     85.69700000    69.36000000    40.88000000
   H     83.47700000    70.20000000    39.92000000
   H     83.26700000    68.62000000    39.34000000
   H     86.10700000    67.23000000    39.66000000
   H     85.70700000    66.92000000    41.38000000
   H     84.50700000    66.70000000    40.07000000
   H     84.04700000    70.08000000    37.71000000
   H     85.48700000    70.62000000    38.73000000
   H     85.49700000    69.12000000    37.91000000
   N     84.57700000    67.06000000    43.89000000
   C     85.42700000    66.21000000    44.71000000
   C     86.11700000    65.14000000    43.88000000
   O     85.66700000    64.83000000    42.77000000
   C     84.69700000    65.59000000    45.90000000
   O     83.75700000    64.61000000    45.50000000
   H     83.64700000    66.72000000    43.69000000
   H     86.23700000    66.85000000    45.06000000
   H     84.20700000    66.37000000    46.48000000
   H     85.46700000    65.03000000    46.43000000
   H     83.20700000    65.00000000    44.82000000
   N     87.22700000    64.56000000    44.33000000
   C     88.13700000    63.72000000    43.57000000
   C     87.51700000    62.39000000    43.17000000
   O     87.77700000    61.81000000    42.12000000
   C     89.48700000    63.62000000    44.28000000
   H     87.67700000    64.83000000    45.19000000
   H     88.38700000    64.36000000    42.72000000
   H     90.22700000    63.04000000    43.73000000
   H     89.90700000    64.60000000    44.52000000
   H     89.31700000    63.09000000    45.22000000
   N     86.44700000    62.00000000    43.87000000
   C     85.67700000    60.83000000    43.51000000
   C     84.84700000    61.05000000    42.25000000
   O     84.68700000    60.10000000    41.48000000
   C     84.74700000    60.48000000    44.66000000
   H     86.34700000    62.40000000    44.79000000
   H     86.22700000    59.94000000    43.21000000
   H     84.08700000    61.33000000    44.84000000
   H     84.17700000    59.63000000    44.29000000
   H     85.28700000    60.33000000    45.60000000
   N     84.46700000    62.30000000    41.98000000
   C     83.66700000    62.64000000    40.82000000
   C     84.60700000    62.85000000    39.64000000
   O     84.20700000    62.49000000    38.54000000
   C     82.80700000    63.89000000    41.02000000
   C     81.96700000    63.75000000    42.28000000
   C     81.43700000    65.10000000    42.75000000
   O     82.12700000    65.88000000    43.45000000
   O     80.23700000    65.42000000    42.64000000
   H     84.65700000    63.07000000    42.61000000
   H     83.02700000    61.79000000    40.59000000
   H     82.13700000    63.91000000    40.17000000
   H     83.36700000    64.83000000    41.01000000
   H     82.52700000    63.23000000    43.06000000
   H     81.09700000    63.15000000    42.04000000
   N     85.85700000    63.26000000    39.86000000
   C     86.87700000    63.38000000    38.83000000
   H     87.80000000    62.91500000    39.17700000
   H     86.53800000    62.88100000    37.92200000
   H     87.05900000    64.43400000    38.61900000
   H     86.22700000    63.36000000    40.79000000
  Ca     80.15000000    67.56000000    44.41000000
   O     82.23000000    67.65000000    46.12000000
   H     83.05000000    68.05000000    46.41000000
   H     81.95000000    67.11000000    46.87000000

Ca 1.70



