%chk=CaMKII_loop3_79.0.chk
%nprocshared=48
%mem=10GB
%nosave
#b3lyp/svp scf=(tight,noincore) Test 
#IOP(5/87=12) Density=Current Pop=(MK,readradii) iop(6/33=2) iop(6/42=6)

CaMKII_loop3_79.0 

   0   1
   C     71.23000000    44.12000000    20.93000000
   C     69.90000000    43.40000000    21.12000000
   O     69.88000000    42.19000000    20.94000000
   H     71.99000000    43.40300000    20.61900000
   H     71.12200000    44.88800000    20.16400000
   H     71.53100000    44.58300000    21.87000000
   N     68.88000000    44.16000000    21.53000000
   C     67.63000000    43.65000000    22.06000000
   C     66.68000000    43.33000000    20.92000000
   O     65.74000000    44.09000000    20.68000000
   C     67.04000000    44.68000000    23.02000000
   C     65.74000000    44.19000000    23.64000000
   O     65.62000000    42.97000000    23.88000000
   O     64.83000000    45.00000000    23.94000000
   H     69.04000000    45.16000000    21.61000000
   H     67.82000000    42.77000000    22.66000000
   H     66.86000000    45.65000000    22.57000000
   H     67.81000000    44.80000000    23.79000000
   N     66.87000000    42.30000000    20.09000000
   C     66.21000000    42.00000000    18.84000000
   C     64.75000000    41.61000000    19.05000000
   O     63.95000000    41.86000000    18.15000000
   C     66.97000000    40.87000000    18.16000000
   C     66.51000000    40.85000000    16.70000000
   C     67.16000000    39.78000000    15.82000000
   C     66.91000000    40.18000000    14.37000000
   N     67.56000000    39.30000000    13.39000000
   H     67.42000000    41.61000000    20.59000000
   H     66.24000000    42.87000000    18.19000000
   H     66.73000000    39.94000000    18.68000000
   H     68.05000000    41.03000000    18.16000000
   H     66.80000000    41.79000000    16.23000000
   H     65.43000000    40.75000000    16.67000000
   H     66.71000000    38.83000000    16.13000000
   H     68.23000000    39.83000000    15.98000000
   H     67.26000000    41.21000000    14.26000000
   H     65.83000000    40.16000000    14.20000000
   H     67.13000000    38.39000000    13.42000000
   H     67.45000000    39.64000000    12.44000000
   H     68.55000000    39.34000000    13.58000000
   N     64.48000000    40.96000000    20.18000000
   C     63.16000000    40.65000000    20.70000000
   C     62.28000000    41.78000000    21.22000000
   O     61.08000000    41.72000000    21.47000000
   C     63.20000000    39.59000000    21.79000000
   C     64.05000000    40.00000000    22.98000000
   O     65.20000000    40.43000000    22.73000000
   O     63.64000000    39.92000000    24.16000000
   H     65.22000000    40.92000000    20.86000000
   H     62.67000000    40.24000000    19.81000000
   H     63.52000000    38.61000000    21.45000000
   H     62.16000000    39.49000000    22.10000000
   N     62.90000000    42.96000000    21.36000000
   C     62.34000000    44.19000000    21.87000000
   C     61.93000000    44.23000000    23.34000000
   O     61.25000000    45.21000000    23.63000000
   H     63.88000000    42.93000000    21.10000000
   H     61.49000000    44.58000000    21.32000000
   H     63.05000000    45.00000000    21.68000000
   N     62.26000000    43.27000000    24.21000000
   C     61.65000000    43.27000000    25.52000000
   C     62.03000000    44.37000000    26.50000000
   O     61.43000000    44.41000000    27.57000000
   C     61.81000000    41.86000000    26.09000000
   C     63.09000000    41.62000000    26.88000000
   N     63.04000000    40.86000000    27.97000000
   O     64.20000000    42.05000000    26.56000000
   H     62.98000000    42.61000000    23.94000000
   H     60.59000000    43.44000000    25.35000000
   H     61.62000000    41.11000000    25.32000000
   H     61.02000000    41.80000000    26.84000000
   H     62.22000000    40.36000000    28.30000000
   H     63.89000000    40.87000000    28.52000000
   N     63.02000000    45.22000000    26.20000000
   C     63.62000000    46.20000000    27.07000000
   C     64.82000000    45.85000000    27.94000000
   O     65.18000000    46.71000000    28.74000000
   H     63.48000000    45.15000000    25.30000000
   H     62.80000000    46.52000000    27.72000000
   H     63.81000000    47.15000000    26.57000000
   N     65.39000000    44.66000000    27.73000000
   C     66.62000000    44.26000000    28.40000000
   C     67.62000000    43.51000000    27.54000000
   O     67.32000000    42.75000000    26.62000000
   C     66.34000000    43.41000000    29.64000000
   C     65.44000000    43.98000000    30.71000000
   C     65.95000000    44.56000000    31.87000000
   C     64.05000000    43.84000000    30.53000000
   C     65.01000000    44.96000000    32.82000000
   C     63.11000000    44.36000000    31.43000000
   C     63.61000000    44.88000000    32.64000000
   O     62.72000000    45.46000000    33.50000000
   H     64.93000000    44.06000000    27.07000000
   H     67.18000000    45.07000000    28.87000000
   H     67.33000000    43.30000000    30.07000000
   H     66.07000000    42.40000000    29.34000000
   H     67.02000000    44.65000000    31.99000000
   H     63.70000000    43.30000000    29.66000000
   H     65.44000000    45.47000000    33.67000000
   H     62.06000000    44.18000000    31.28000000
   H     61.86000000    45.33000000    33.09000000
   N     68.88000000    43.63000000    27.95000000
   C     70.00000000    42.81000000    27.53000000
   C     70.02000000    41.67000000    28.54000000
   O     69.99000000    41.85000000    29.75000000
   C     71.36000000    43.48000000    27.35000000
   C     71.17000000    44.88000000    26.76000000
   C     72.29000000    42.70000000    26.42000000
   C     72.37000000    45.72000000    26.36000000
   H     69.18000000    44.37000000    28.56000000
   H     69.71000000    42.43000000    26.55000000
   H     71.82000000    43.49000000    28.34000000
   H     70.50000000    45.50000000    27.35000000
   H     70.66000000    44.74000000    25.80000000
   H     72.39000000    41.63000000    26.62000000
   H     71.94000000    42.81000000    25.39000000
   H     73.27000000    43.16000000    26.47000000
   H     73.12000000    45.64000000    27.15000000
   H     72.78000000    45.35000000    25.42000000
   H     72.23000000    46.77000000    26.13000000
   N     70.07000000    40.43000000    28.03000000
   C     70.50000000    39.20000000    28.67000000
   C     71.82000000    38.72000000    28.10000000
   O     72.14000000    39.19000000    27.01000000
   C     69.41000000    38.13000000    28.68000000
   O     69.20000000    37.77000000    27.34000000
   H     70.08000000    40.36000000    27.03000000
   H     70.71000000    39.43000000    29.72000000
   H     68.46000000    38.56000000    29.00000000
   H     69.68000000    37.33000000    29.37000000
   H     68.86000000    38.53000000    26.87000000
   N     72.64000000    37.89000000    28.75000000
   C     74.01000000    37.65000000    28.34000000
   C     74.21000000    37.15000000    26.91000000
   O     75.09000000    37.67000000    26.23000000
   C     74.69000000    36.74000000    29.35000000
   H     72.37000000    37.53000000    29.65000000
   H     74.56000000    38.59000000    28.40000000
   H     74.45000000    35.70000000    29.12000000
   H     75.76000000    36.93000000    29.29000000
   H     74.31000000    36.96000000    30.35000000
   N     73.34000000    36.26000000    26.43000000
   C     73.45000000    35.72000000    25.09000000
   C     73.38000000    36.79000000    24.01000000
   O     73.76000000    36.60000000    22.85000000
   C     72.37000000    34.65000000    24.94000000
   H     72.50000000    36.00000000    26.93000000
   H     74.40000000    35.20000000    25.01000000
   H     71.46000000    35.20000000    24.69000000
   H     72.70000000    33.96000000    24.16000000
   H     72.38000000    34.03000000    25.84000000
   N     72.80000000    37.96000000    24.28000000
   C     72.44000000    38.94000000    23.27000000
   C     73.70000000    39.78000000    23.08000000
   O     74.10000000    40.09000000    21.96000000
   C     71.30000000    39.84000000    23.72000000
   C     69.96000000    39.12000000    23.84000000
   C     68.85000000    39.98000000    24.43000000
   O     68.66000000    39.90000000    25.67000000
   O     68.21000000    40.85000000    23.81000000
   H     72.56000000    38.17000000    25.24000000
   H     72.21000000    38.46000000    22.32000000
   H     71.15000000    40.60000000    22.95000000
   H     71.52000000    40.36000000    24.66000000
   H     70.07000000    38.21000000    24.43000000
   H     69.70000000    38.86000000    22.82000000
   N     74.47000000    40.13000000    24.11000000
   C     75.78000000    40.73000000    24.13000000
   H     76.48000000    40.09200000    23.59100000
   H     75.73900000    41.70900000    23.65200000
   H     76.11300000    40.84300000    25.16200000
   H     74.06000000    39.89000000    25.01000000
  Ca     66.14000000    40.91000000    25.20000000
   O     66.04000000    38.30000000    24.58000000
   H     66.24000000    37.55000000    24.01000000
   H     65.28000000    38.02000000    25.09000000

Ca 1.70



