%chk=CaMKII_loop3_110.0.chk
%nprocshared=48
%mem=10GB
%nosave
#b3lyp/svp scf=(tight,noincore) Test 
#IOP(5/87=12) Density=Current Pop=(MK,readradii) iop(6/33=2) iop(6/42=6)

CaMKII_loop3_110.0 

   0   1
   C     60.07000000    45.83000000    33.08000000
   C     59.80000000    44.89000000    34.24000000
   O     60.64000000    44.02000000    34.50000000
   H     61.10200000    45.71000000    32.74900000
   H     59.39500000    45.59500000    32.25700000
   H     59.90900000    46.85900000    33.40100000
   N     58.70000000    45.17000000    34.94000000
   C     58.40000000    44.36000000    36.11000000
   C     57.96000000    42.96000000    35.71000000
   O     57.25000000    42.66000000    34.75000000
   C     57.40000000    45.12000000    36.97000000
   C     57.42000000    44.63000000    38.41000000
   O     58.00000000    45.33000000    39.28000000
   O     57.03000000    43.50000000    38.75000000
   H     58.06000000    45.89000000    34.64000000
   H     59.30000000    44.38000000    36.73000000
   H     56.40000000    45.00000000    36.57000000
   H     57.69000000    46.18000000    37.00000000
   N     58.34000000    41.98000000    36.54000000
   C     58.05000000    40.57000000    36.43000000
   C     56.73000000    40.14000000    37.05000000
   O     56.32000000    39.02000000    36.73000000
   C     59.19000000    39.74000000    37.02000000
   C     60.59000000    39.87000000    36.42000000
   C     60.56000000    39.31000000    35.00000000
   C     61.85000000    39.64000000    34.25000000
   N     61.81000000    39.23000000    32.84000000
   H     58.77000000    42.26000000    37.41000000
   H     57.99000000    40.22000000    35.40000000
   H     58.88000000    38.70000000    36.97000000
   H     59.21000000    40.06000000    38.07000000
   H     61.18000000    39.30000000    37.14000000
   H     60.98000000    40.89000000    36.32000000
   H     59.75000000    39.75000000    34.42000000
   H     60.54000000    38.23000000    35.07000000
   H     62.68000000    39.20000000    34.79000000
   H     62.03000000    40.71000000    34.38000000
   H     61.58000000    38.26000000    32.68000000
   H     61.25000000    39.81000000    32.23000000
   H     62.73000000    39.29000000    32.43000000
   N     56.13000000    40.91000000    37.96000000
   C     54.80000000    40.65000000    38.49000000
   C     53.90000000    41.85000000    38.73000000
   O     52.70000000    41.75000000    39.01000000
   C     54.86000000    40.06000000    39.90000000
   C     55.83000000    40.73000000    40.86000000
   O     56.63000000    40.02000000    41.52000000
   O     56.09000000    41.95000000    40.91000000
   H     56.60000000    41.77000000    38.21000000
   H     54.21000000    39.98000000    37.87000000
   H     55.27000000    39.08000000    39.66000000
   H     53.86000000    39.98000000    40.32000000
   N     54.42000000    43.05000000    38.46000000
   C     53.74000000    44.33000000    38.52000000
   C     53.29000000    44.68000000    39.93000000
   O     52.25000000    45.31000000    40.12000000
   H     55.38000000    42.94000000    38.17000000
   H     52.86000000    44.30000000    37.87000000
   H     54.41000000    45.05000000    38.05000000
   N     54.01000000    44.26000000    40.97000000
   C     53.73000000    44.52000000    42.36000000
   C     53.96000000    45.96000000    42.79000000
   O     53.89000000    46.18000000    43.99000000
   C     54.26000000    43.42000000    43.28000000
   C     55.73000000    43.43000000    43.68000000
   N     56.22000000    42.71000000    44.69000000
   O     56.45000000    44.18000000    43.03000000
   H     54.71000000    43.53000000    40.89000000
   H     52.64000000    44.46000000    42.44000000
   H     54.05000000    42.42000000    42.88000000
   H     53.66000000    43.46000000    44.19000000
   H     55.61000000    42.15000000    45.26000000
   H     57.19000000    42.82000000    44.97000000
   N     54.30000000    46.86000000    41.86000000
   C     54.55000000    48.28000000    42.00000000
   C     55.92000000    48.71000000    42.50000000
   O     56.13000000    49.84000000    42.92000000
   H     54.21000000    46.60000000    40.88000000
   H     53.82000000    48.59000000    42.74000000
   H     54.32000000    48.79000000    41.06000000
   N     56.91000000    47.81000000    42.56000000
   C     58.34000000    48.03000000    42.57000000
   C     59.21000000    47.02000000    41.84000000
   O     58.85000000    45.86000000    41.73000000
   C     58.78000000    48.11000000    44.03000000
   C     58.81000000    46.82000000    44.82000000
   C     57.77000000    46.40000000    45.65000000
   C     59.90000000    45.95000000    44.69000000
   C     57.88000000    45.14000000    46.24000000
   C     60.05000000    44.66000000    45.23000000
   C     59.01000000    44.31000000    46.11000000
   O     59.01000000    43.16000000    46.85000000
   H     56.68000000    46.86000000    42.29000000
   H     58.43000000    49.03000000    42.13000000
   H     58.09000000    48.74000000    44.59000000
   H     59.77000000    48.56000000    44.08000000
   H     56.96000000    47.10000000    45.83000000
   H     60.71000000    46.19000000    44.02000000
   H     57.13000000    44.93000000    46.99000000
   H     60.92000000    44.04000000    45.07000000
   H     59.81000000    42.66000000    46.65000000
   N     60.36000000    47.50000000    41.35000000
   C     61.42000000    46.70000000    40.78000000
   C     62.50000000    46.35000000    41.80000000
   O     63.04000000    47.26000000    42.42000000
   C     61.97000000    47.22000000    39.46000000
   C     60.86000000    47.91000000    38.68000000
   C     62.74000000    46.26000000    38.56000000
   C     61.25000000    48.48000000    37.31000000
   H     60.49000000    48.49000000    41.20000000
   H     60.92000000    45.79000000    40.44000000
   H     62.65000000    48.01000000    39.78000000
   H     60.65000000    48.80000000    39.27000000
   H     60.03000000    47.22000000    38.54000000
   H     63.55000000    45.79000000    39.11000000
   H     62.06000000    45.58000000    38.04000000
   H     63.26000000    46.88000000    37.83000000
   H     62.21000000    49.00000000    37.36000000
   H     61.34000000    47.63000000    36.64000000
   H     60.48000000    49.15000000    36.93000000
   N     62.75000000    45.05000000    42.00000000
   C     63.87000000    44.56000000    42.78000000
   C     65.06000000    44.11000000    41.96000000
   O     64.99000000    43.95000000    40.74000000
   C     63.37000000    43.55000000    43.81000000
   O     62.67000000    42.49000000    43.19000000
   H     62.24000000    44.42000000    41.39000000
   H     64.25000000    45.39000000    43.38000000
   H     62.71000000    44.13000000    44.46000000
   H     64.14000000    43.14000000    44.46000000
   H     61.98000000    42.88000000    42.65000000
   N     66.25000000    44.12000000    42.57000000
   C     67.51000000    43.83000000    41.91000000
   C     67.53000000    42.54000000    41.11000000
   O     68.06000000    42.62000000    40.00000000
   C     68.48000000    43.72000000    43.09000000
   H     66.37000000    44.30000000    43.55000000
   H     67.82000000    44.61000000    41.22000000
   H     68.66000000    44.73000000    43.46000000
   H     68.15000000    43.12000000    43.94000000
   H     69.37000000    43.24000000    42.67000000
   N     66.97000000    41.37000000    41.44000000
   C     66.94000000    40.20000000    40.59000000
   C     65.85000000    40.15000000    39.52000000
   O     65.99000000    39.38000000    38.57000000
   C     66.91000000    38.98000000    41.50000000
   H     66.85000000    41.21000000    42.43000000
   H     67.84000000    40.16000000    39.97000000
   H     67.85000000    38.97000000    42.06000000
   H     66.19000000    39.19000000    42.28000000
   H     66.77000000    38.06000000    40.93000000
   N     64.86000000    41.04000000    39.56000000
   C     64.09000000    41.38000000    38.38000000
   C     65.00000000    42.16000000    37.44000000
   O     65.03000000    42.01000000    36.22000000
   C     62.80000000    42.14000000    38.63000000
   C     61.87000000    41.52000000    39.67000000
   C     60.69000000    42.40000000    40.02000000
   O     59.64000000    42.34000000    39.34000000
   O     60.77000000    43.19000000    40.99000000
   H     64.65000000    41.58000000    40.38000000
   H     63.77000000    40.46000000    37.88000000
   H     62.28000000    42.23000000    37.67000000
   H     63.06000000    43.13000000    39.02000000
   H     62.49000000    41.31000000    40.54000000
   H     61.56000000    40.51000000    39.39000000
   N     65.80000000    43.09000000    37.96000000
   C     66.67000000    43.91000000    37.14000000
   H     67.62900000    43.40800000    37.01500000
   H     66.21100000    44.06400000    36.16300000
   H     66.82500000    44.87400000    37.62500000
   H     65.71000000    43.37000000    38.93000000
  Ca     58.11000000    43.46000000    41.12000000
   O     58.31000000    41.52000000    42.86000000
   H     57.70000000    40.81000000    42.64000000
   H     58.61000000    41.31000000    43.74000000

Ca 1.70



