%chk=CaMKII_loop3_65.0.chk
%nprocshared=48
%mem=10GB
%nosave
#b3lyp/svp scf=(tight,noincore) Test 
#IOP(5/87=12) Density=Current Pop=(MK,readradii) iop(6/33=2) iop(6/42=6)

CaMKII_loop3_65.0 

   0   1
   C     85.47000000    65.83000000    29.76000000
   C     84.91000000    65.44000000    31.13000000
   O     85.49000000    64.54000000    31.73000000
   H     86.49100000    65.46000000    29.66700000
   H     84.85200000    65.39200000    28.97600000
   H     85.46700000    66.91600000    29.66100000
   N     83.80000000    65.99000000    31.64000000
   C     83.26000000    65.68000000    32.95000000
   C     82.51000000    64.35000000    32.98000000
   O     81.49000000    64.20000000    32.30000000
   C     82.46000000    66.92000000    33.33000000
   C     81.92000000    66.91000000    34.75000000
   O     82.13000000    65.90000000    35.45000000
   O     81.41000000    67.99000000    35.14000000
   H     83.50000000    66.83000000    31.17000000
   H     84.06000000    65.62000000    33.69000000
   H     81.61000000    67.08000000    32.67000000
   H     83.12000000    67.78000000    33.27000000
   N     82.98000000    63.45000000    33.84000000
   C     82.49000000    62.09000000    33.82000000
   C     81.14000000    61.97000000    34.52000000
   O     80.30000000    61.18000000    34.10000000
   C     83.58000000    61.12000000    34.28000000
   C     83.51000000    59.80000000    33.52000000
   C     84.46000000    58.77000000    34.13000000
   C     84.44000000    57.53000000    33.23000000
   N     85.16000000    56.39000000    33.83000000
   H     83.72000000    63.72000000    34.46000000
   H     82.30000000    61.85000000    32.77000000
   H     83.42000000    60.89000000    35.33000000
   H     84.59000000    61.50000000    34.11000000
   H     83.75000000    60.01000000    32.47000000
   H     82.47000000    59.48000000    33.44000000
   H     84.07000000    58.62000000    35.14000000
   H     85.48000000    59.13000000    34.23000000
   H     84.85000000    57.86000000    32.28000000
   H     83.39000000    57.30000000    33.08000000
   H     84.72000000    56.16000000    34.71000000
   H     85.08000000    55.67000000    33.12000000
   H     86.15000000    56.52000000    33.97000000
   N     80.84000000    62.81000000    35.50000000
   C     79.65000000    62.77000000    36.32000000
   C     78.73000000    63.96000000    36.06000000
   O     77.52000000    63.79000000    36.18000000
   C     79.84000000    62.43000000    37.79000000
   C     80.78000000    63.42000000    38.46000000
   O     81.09000000    64.53000000    37.97000000
   O     81.33000000    63.05000000    39.52000000
   H     81.57000000    63.49000000    35.69000000
   H     79.17000000    61.86000000    35.96000000
   H     80.25000000    61.43000000    37.93000000
   H     78.86000000    62.60000000    38.24000000
   N     79.27000000    65.12000000    35.69000000
   C     78.46000000    66.27000000    35.37000000
   C     78.23000000    67.32000000    36.45000000
   O     77.22000000    68.02000000    36.50000000
   H     80.27000000    65.19000000    35.81000000
   H     77.49000000    65.88000000    35.07000000
   H     78.82000000    66.74000000    34.45000000
   N     79.18000000    67.43000000    37.39000000
   C     79.16000000    68.29000000    38.55000000
   C     79.81000000    69.65000000    38.34000000
   O     79.87000000    70.47000000    39.26000000
   C     79.66000000    67.56000000    39.80000000
   C     81.17000000    67.36000000    39.88000000
   N     81.71000000    67.30000000    41.10000000
   O     81.86000000    67.26000000    38.86000000
   H     80.02000000    66.88000000    37.28000000
   H     78.11000000    68.55000000    38.69000000
   H     79.17000000    66.61000000    40.00000000
   H     79.42000000    68.18000000    40.66000000
   H     81.16000000    67.74000000    41.82000000
   H     82.72000000    67.34000000    41.20000000
   N     80.16000000    69.91000000    37.08000000
   C     80.79000000    71.12000000    36.61000000
   C     82.26000000    71.20000000    37.01000000
   O     82.82000000    72.29000000    36.99000000
   H     80.26000000    69.11000000    36.46000000
   H     80.28000000    72.02000000    36.96000000
   H     80.81000000    71.09000000    35.52000000
   N     82.89000000    70.05000000    37.29000000
   C     84.29000000    69.90000000    37.63000000
   C     84.98000000    68.70000000    36.99000000
   O     84.38000000    67.64000000    36.89000000
   C     84.59000000    69.90000000    39.13000000
   C     83.97000000    70.99000000    39.97000000
   C     84.26000000    72.30000000    39.57000000
   C     83.30000000    70.86000000    41.19000000
   C     83.83000000    73.42000000    40.30000000
   C     82.87000000    71.92000000    42.00000000
   C     83.10000000    73.21000000    41.49000000
   O     82.70000000    74.31000000    42.18000000
   H     82.39000000    69.26000000    36.91000000
   H     84.82000000    70.73000000    37.15000000
   H     85.66000000    69.97000000    39.26000000
   H     84.31000000    68.92000000    39.52000000
   H     84.90000000    72.47000000    38.71000000
   H     83.11000000    69.86000000    41.56000000
   H     84.04000000    74.40000000    39.91000000
   H     82.36000000    71.65000000    42.91000000
   H     82.18000000    74.17000000    42.98000000
   N     86.21000000    68.82000000    36.47000000
   C     86.98000000    67.73000000    35.89000000
   C     88.26000000    67.45000000    36.68000000
   O     89.03000000    68.36000000    36.96000000
   C     87.26000000    67.97000000    34.41000000
   C     86.09000000    68.23000000    33.46000000
   C     88.21000000    67.02000000    33.68000000
   C     86.41000000    69.31000000    32.43000000
   H     86.58000000    69.75000000    36.44000000
   H     86.36000000    66.84000000    35.90000000
   H     87.77000000    68.93000000    34.47000000
   H     85.22000000    68.54000000    34.05000000
   H     85.88000000    67.26000000    33.02000000
   H     87.71000000    66.05000000    33.66000000
   H     88.56000000    67.37000000    32.71000000
   H     89.09000000    66.94000000    34.31000000
   H     87.33000000    69.12000000    31.88000000
   H     85.58000000    69.34000000    31.72000000
   H     86.49000000    70.30000000    32.88000000
   N     88.53000000    66.19000000    37.02000000
   C     89.71000000    65.67000000    37.68000000
   C     90.64000000    64.91000000    36.75000000
   O     90.16000000    64.44000000    35.72000000
   C     89.33000000    64.84000000    38.91000000
   O     88.89000000    63.54000000    38.60000000
   H     87.94000000    65.50000000    36.60000000
   H     90.34000000    66.47000000    38.09000000
   H     88.51000000    65.40000000    39.36000000
   H     90.22000000    64.72000000    39.53000000
   H     88.71000000    63.12000000    39.45000000
   N     91.89000000    64.59000000    37.10000000
   C     92.82000000    63.86000000    36.26000000
   C     92.43000000    62.43000000    35.91000000
   O     92.48000000    62.11000000    34.72000000
   C     94.21000000    63.97000000    36.87000000
   H     92.26000000    64.93000000    37.97000000
   H     92.84000000    64.32000000    35.27000000
   H     94.34000000    64.87000000    37.47000000
   H     94.42000000    63.23000000    37.64000000
   H     94.93000000    63.85000000    36.05000000
   N     91.72000000    61.85000000    36.88000000
   C     91.07000000    60.57000000    36.68000000
   C     89.94000000    60.62000000    35.66000000
   O     89.90000000    59.75000000    34.79000000
   C     90.45000000    60.17000000    38.02000000
   H     91.54000000    62.32000000    37.76000000
   H     91.75000000    59.79000000    36.35000000
   H     91.24000000    60.00000000    38.76000000
   H     89.64000000    60.85000000    38.28000000
   H     90.02000000    59.18000000    37.94000000
   N     89.11000000    61.66000000    35.71000000
   C     88.12000000    61.88000000    34.67000000
   C     88.80000000    62.15000000    33.33000000
   O     88.45000000    61.54000000    32.32000000
   C     87.13000000    62.99000000    35.02000000
   C     86.35000000    62.48000000    36.23000000
   C     85.12000000    63.31000000    36.56000000
   O     84.26000000    63.05000000    37.44000000
   O     84.89000000    64.31000000    35.85000000
   H     89.32000000    62.47000000    36.27000000
   H     87.55000000    60.96000000    34.59000000
   H     86.42000000    63.17000000    34.22000000
   H     87.69000000    63.91000000    35.24000000
   H     87.07000000    62.36000000    37.03000000
   H     86.08000000    61.44000000    36.03000000
   N     89.67000000    63.15000000    33.31000000
   C     90.33000000    63.54000000    32.08000000
   H     91.33700000    63.12200000    32.06000000
   H     89.76400000    63.16300000    31.22800000
   H     90.38700000    64.62700000    32.02700000
   H     89.85000000    63.58000000    34.21000000
  Ca     83.40000000    65.47000000    37.67000000
   O     85.91000000    65.30000000    38.66000000
   H     86.57000000    64.74000000    38.25000000
   H     85.93000000    65.06000000    39.59000000

Ca 1.70



