%chk=CaMKII_loop3_63.0.chk
%nprocshared=48
%mem=10GB
%nosave
#b3lyp/svp scf=(tight,noincore) Test 
#IOP(5/87=12) Density=Current Pop=(MK,readradii) iop(6/33=2) iop(6/42=6)

CaMKII_loop3_63.0 

   0   1
   C     85.05000000    66.45000000    28.89000000
   C     84.54000000    66.02000000    30.25000000
   O     85.22000000    65.26000000    30.94000000
   H     86.07400000    66.10000000    28.75900000
   H     84.41800000    66.02100000    28.11200000
   H     85.02600000    67.53700000    28.82000000
   N     83.48000000    66.65000000    30.77000000
   C     82.93000000    66.29000000    32.06000000
   C     82.21000000    64.95000000    31.99000000
   O     81.33000000    64.73000000    31.16000000
   C     82.05000000    67.46000000    32.45000000
   C     81.24000000    67.20000000    33.71000000
   O     81.40000000    66.17000000    34.40000000
   O     80.31000000    68.01000000    33.95000000
   H     82.98000000    67.34000000    30.22000000
   H     83.77000000    66.25000000    32.76000000
   H     81.31000000    67.65000000    31.67000000
   H     82.62000000    68.38000000    32.62000000
   N     82.55000000    64.01000000    32.87000000
   C     82.13000000    62.62000000    32.90000000
   C     80.71000000    62.38000000    33.40000000
   O     80.20000000    61.26000000    33.28000000
   C     83.12000000    61.84000000    33.75000000
   C     82.87000000    60.34000000    33.60000000
   C     83.99000000    59.47000000    34.17000000
   C     83.84000000    57.95000000    34.13000000
   N     85.15000000    57.38000000    34.46000000
   H     83.36000000    64.16000000    33.45000000
   H     82.30000000    62.20000000    31.91000000
   H     82.96000000    62.18000000    34.77000000
   H     84.17000000    61.98000000    33.51000000
   H     82.70000000    60.01000000    32.57000000
   H     82.06000000    60.01000000    34.25000000
   H     84.04000000    59.71000000    35.23000000
   H     84.93000000    59.71000000    33.68000000
   H     83.61000000    57.77000000    33.08000000
   H     83.06000000    57.68000000    34.84000000
   H     85.86000000    58.10000000    34.38000000
   H     85.25000000    57.13000000    35.43000000
   H     85.43000000    56.58000000    33.90000000
   N     80.04000000    63.39000000    33.96000000
   C     78.71000000    63.17000000    34.49000000
   C     77.74000000    64.34000000    34.42000000
   O     76.58000000    64.23000000    34.80000000
   C     78.65000000    62.68000000    35.93000000
   C     79.37000000    63.53000000    36.97000000
   O     79.94000000    64.57000000    36.55000000
   O     79.36000000    63.27000000    38.19000000
   H     80.54000000    64.26000000    34.10000000
   H     78.24000000    62.36000000    33.94000000
   H     79.14000000    61.73000000    36.10000000
   H     77.62000000    62.45000000    36.21000000
   N     78.18000000    65.40000000    33.74000000
   C     77.38000000    66.54000000    33.34000000
   C     77.28000000    67.57000000    34.45000000
   O     76.64000000    68.60000000    34.24000000
   H     79.18000000    65.45000000    33.57000000
   H     76.40000000    66.17000000    33.03000000
   H     77.85000000    67.06000000    32.50000000
   N     77.89000000    67.47000000    35.63000000
   C     77.68000000    68.36000000    36.76000000
   C     78.38000000    69.71000000    36.66000000
   O     77.95000000    70.62000000    37.38000000
   C     78.24000000    67.61000000    37.96000000
   C     79.66000000    67.85000000    38.45000000
   N     79.81000000    68.27000000    39.71000000
   O     80.60000000    67.74000000    37.66000000
   H     78.34000000    66.59000000    35.83000000
   H     76.60000000    68.50000000    36.74000000
   H     78.12000000    66.53000000    37.88000000
   H     77.61000000    67.89000000    38.80000000
   H     78.97000000    68.54000000    40.21000000
   H     80.77000000    68.36000000    40.02000000
   N     79.17000000    69.92000000    35.61000000
   C     79.76000000    71.21000000    35.29000000
   C     81.21000000    71.44000000    35.67000000
   O     81.71000000    72.56000000    35.61000000
   H     79.47000000    69.17000000    35.01000000
   H     79.10000000    71.99000000    35.66000000
   H     79.69000000    71.30000000    34.21000000
   N     81.89000000    70.36000000    36.07000000
   C     83.27000000    70.43000000    36.50000000
   C     84.00000000    69.17000000    36.04000000
   O     83.37000000    68.14000000    35.80000000
   C     83.49000000    70.62000000    38.00000000
   C     82.78000000    71.78000000    38.64000000
   C     83.37000000    72.91000000    39.21000000
   C     81.38000000    71.77000000    38.68000000
   C     82.62000000    74.00000000    39.66000000
   C     80.58000000    72.82000000    39.14000000
   C     81.21000000    73.95000000    39.72000000
   O     80.53000000    75.01000000    40.22000000
   H     81.44000000    69.45000000    36.14000000
   H     83.66000000    71.29000000    35.96000000
   H     84.56000000    70.71000000    38.18000000
   H     83.18000000    69.67000000    38.44000000
   H     84.45000000    73.01000000    39.31000000
   H     80.87000000    70.89000000    38.31000000
   H     83.09000000    74.78000000    40.25000000
   H     79.51000000    72.74000000    39.07000000
   H     79.59000000    74.80000000    40.23000000
   N     85.32000000    69.33000000    35.90000000
   C     86.21000000    68.26000000    35.50000000
   C     87.36000000    68.08000000    36.48000000
   O     87.84000000    69.00000000    37.15000000
   C     86.64000000    68.46000000    34.05000000
   C     85.70000000    69.04000000    33.00000000
   C     87.17000000    67.16000000    33.44000000
   C     86.34000000    70.05000000    32.05000000
   H     85.76000000    70.23000000    36.04000000
   H     85.60000000    67.36000000    35.58000000
   H     87.49000000    69.15000000    34.14000000
   H     84.81000000    69.51000000    33.41000000
   H     85.36000000    68.21000000    32.38000000
   H     86.33000000    66.47000000    33.44000000
   H     87.51000000    67.32000000    32.42000000
   H     88.09000000    66.82000000    33.91000000
   H     87.42000000    69.93000000    32.02000000
   H     85.90000000    70.07000000    31.05000000
   H     86.13000000    71.03000000    32.47000000
   N     87.94000000    66.88000000    36.51000000
   C     89.11000000    66.42000000    37.21000000
   C     90.19000000    65.82000000    36.32000000
   O     89.95000000    65.60000000    35.13000000
   C     88.62000000    65.31000000    38.14000000
   O     88.35000000    64.13000000    37.41000000
   H     87.52000000    66.18000000    35.91000000
   H     89.64000000    67.23000000    37.72000000
   H     87.73000000    65.64000000    38.67000000
   H     89.40000000    65.11000000    38.88000000
   H     87.79000000    63.58000000    37.97000000
   N     91.33000000    65.38000000    36.84000000
   C     92.39000000    64.66000000    36.15000000
   C     91.87000000    63.28000000    35.77000000
   O     92.22000000    62.81000000    34.69000000
   C     93.63000000    64.57000000    37.03000000
   H     91.51000000    65.48000000    37.83000000
   H     92.84000000    65.21000000    35.33000000
   H     93.53000000    63.95000000    37.92000000
   H     94.33000000    64.06000000    36.37000000
   H     94.04000000    65.55000000    37.29000000
   N     91.08000000    62.49000000    36.50000000
   C     90.50000000    61.25000000    36.00000000
   C     89.52000000    61.39000000    34.85000000
   O     89.54000000    60.53000000    33.98000000
   C     89.99000000    60.43000000    37.18000000
   H     90.80000000    62.94000000    37.36000000
   H     91.39000000    60.72000000    35.67000000
   H     90.82000000    60.36000000    37.88000000
   H     89.16000000    60.95000000    37.66000000
   H     89.74000000    59.38000000    36.99000000
   N     88.72000000    62.46000000    34.86000000
   C     87.70000000    62.74000000    33.88000000
   C     88.40000000    63.15000000    32.58000000
   O     88.03000000    62.72000000    31.49000000
   C     86.68000000    63.76000000    34.38000000
   C     85.86000000    63.17000000    35.53000000
   C     84.84000000    64.20000000    35.98000000
   O     84.81000000    64.68000000    37.13000000
   O     83.90000000    64.50000000    35.21000000
   H     88.96000000    63.22000000    35.48000000
   H     87.07000000    61.91000000    33.57000000
   H     86.01000000    64.03000000    33.57000000
   H     87.29000000    64.60000000    34.72000000
   H     86.48000000    62.83000000    36.36000000
   H     85.32000000    62.28000000    35.20000000
   N     89.42000000    64.00000000    32.70000000
   C     90.37000000    64.19000000    31.62000000
   H     91.31600000    63.71600000    31.88100000
   H     89.97900000    63.74000000    30.70800000
   H     90.53100000    65.25600000    31.46000000
   H     89.59000000    64.45000000    33.58000000
  Ca     82.38000000    65.89000000    36.75000000
   O     83.61000000    67.19000000    38.56000000
   H     84.47000000    67.58000000    38.67000000
   H     83.07000000    67.59000000    39.25000000

Ca 1.70



