%chk=CaMKII_loop3_105.0.chk
%nprocshared=48
%mem=10GB
%nosave
#b3lyp/svp scf=(tight,noincore) Test 
#IOP(5/87=12) Density=Current Pop=(MK,readradii) iop(6/33=2) iop(6/42=6)

CaMKII_loop3_105.0 

   0   1
   C     34.26000000    38.69000000     0.13000000
   C     34.94000000    37.34000000     0.31000000
   O     36.03000000    37.10000000    -0.22000000
   H     33.30900000    38.69100000     0.66300000
   H     34.90100000    39.47600000     0.52900000
   H     34.08100000    38.86900000    -0.93000000
   N     34.31000000    36.39000000     0.98000000
   C     34.73000000    35.01000000     1.11000000
   C     34.11000000    34.09000000     0.06000000
   O     33.00000000    33.57000000     0.08000000
   C     34.43000000    34.57000000     2.54000000
   C     34.94000000    33.20000000     2.98000000
   O     34.67000000    32.78000000     4.13000000
   O     35.44000000    32.37000000     2.20000000
   H     33.51000000    36.62000000     1.56000000
   H     35.82000000    34.93000000     1.05000000
   H     33.36000000    34.45000000     2.71000000
   H     34.81000000    35.26000000     3.28000000
   N     34.87000000    33.87000000    -1.01000000
   C     34.40000000    33.35000000    -2.29000000
   C     34.33000000    31.83000000    -2.26000000
   O     34.01000000    31.25000000    -3.29000000
   C     35.35000000    33.84000000    -3.38000000
   C     34.92000000    33.74000000    -4.84000000
   C     35.94000000    34.25000000    -5.86000000
   C     37.22000000    33.45000000    -6.06000000
   N     38.01000000    34.12000000    -7.10000000
   H     35.83000000    34.13000000    -0.85000000
   H     33.37000000    33.64000000    -2.49000000
   H     36.19000000    33.16000000    -3.22000000
   H     35.75000000    34.82000000    -3.10000000
   H     34.01000000    34.32000000    -4.98000000
   H     34.66000000    32.71000000    -5.08000000
   H     36.40000000    35.19000000    -5.57000000
   H     35.55000000    34.34000000    -6.87000000
   H     36.93000000    32.41000000    -6.26000000
   H     37.84000000    33.55000000    -5.18000000
   H     38.92000000    33.70000000    -7.18000000
   H     37.64000000    34.11000000    -8.04000000
   H     38.19000000    35.07000000    -6.78000000
   N     34.70000000    31.10000000    -1.21000000
   C     34.30000000    29.72000000    -1.01000000
   C     33.70000000    29.52000000     0.37000000
   O     33.41000000    28.37000000     0.69000000
   C     35.46000000    28.77000000    -1.32000000
   C     36.70000000    29.14000000    -0.53000000
   O     36.95000000    30.26000000    -0.04000000
   O     37.51000000    28.22000000    -0.29000000
   H     35.01000000    31.62000000    -0.40000000
   H     33.50000000    29.49000000    -1.71000000
   H     35.63000000    28.72000000    -2.39000000
   H     35.20000000    27.73000000    -1.11000000
   N     33.38000000    30.59000000     1.11000000
   C     32.38000000    30.44000000     2.15000000
   C     32.87000000    29.87000000     3.47000000
   O     32.07000000    29.55000000     4.35000000
   H     33.55000000    31.52000000     0.78000000
   H     31.65000000    29.75000000     1.73000000
   H     31.80000000    31.35000000     2.27000000
   N     34.17000000    29.64000000     3.65000000
   C     34.69000000    28.72000000     4.64000000
   C     34.63000000    29.44000000     5.98000000
   O     34.57000000    28.76000000     7.00000000
   C     36.12000000    28.36000000     4.24000000
   C     37.12000000    29.50000000     4.38000000
   N     38.04000000    29.20000000     5.30000000
   O     37.07000000    30.55000000     3.75000000
   H     34.90000000    29.89000000     3.00000000
   H     34.22000000    27.74000000     4.73000000
   H     36.18000000    28.05000000     3.19000000
   H     36.44000000    27.52000000     4.87000000
   H     37.90000000    28.47000000     5.98000000
   H     38.70000000    29.96000000     5.37000000
   N     34.62000000    30.77000000     6.07000000
   C     34.73000000    31.56000000     7.28000000
   C     35.90000000    32.53000000     7.28000000
   O     36.12000000    33.12000000     8.34000000
   H     34.84000000    31.25000000     5.20000000
   H     34.75000000    30.86000000     8.12000000
   H     33.82000000    32.12000000     7.46000000
   N     36.63000000    32.79000000     6.20000000
   C     37.61000000    33.86000000     6.17000000
   C     38.05000000    34.29000000     4.77000000
   O     38.11000000    33.48000000     3.85000000
   C     38.82000000    33.50000000     7.03000000
   C     39.33000000    32.08000000     6.97000000
   C     39.20000000    31.30000000     8.12000000
   C     40.00000000    31.61000000     5.84000000
   C     39.86000000    30.06000000     8.19000000
   C     40.75000000    30.43000000     5.96000000
   C     40.69000000    29.65000000     7.13000000
   O     41.01000000    28.33000000     7.05000000
   H     36.23000000    32.41000000     5.35000000
   H     37.24000000    34.74000000     6.69000000
   H     38.66000000    33.86000000     8.04000000
   H     39.69000000    34.03000000     6.63000000
   H     38.73000000    31.70000000     9.01000000
   H     40.11000000    32.19000000     4.94000000
   H     39.63000000    29.37000000     8.99000000
   H     41.33000000    30.07000000     5.13000000
   H     40.75000000    27.86000000     7.85000000
   N     38.52000000    35.54000000     4.68000000
   C     39.03000000    36.31000000     3.57000000
   C     40.55000000    36.38000000     3.47000000
   O     41.22000000    36.70000000     4.45000000
   C     38.49000000    37.73000000     3.63000000
   C     36.96000000    37.74000000     3.59000000
   C     38.99000000    38.63000000     2.51000000
   C     36.29000000    38.94000000     4.26000000
   H     38.40000000    36.09000000     5.52000000
   H     38.61000000    35.78000000     2.71000000
   H     38.87000000    38.13000000     4.57000000
   H     36.63000000    36.81000000     4.06000000
   H     36.61000000    37.62000000     2.57000000
   H     38.81000000    38.26000000     1.50000000
   H     38.49000000    39.60000000     2.56000000
   H     40.05000000    38.89000000     2.59000000
   H     36.52000000    38.91000000     5.33000000
   H     36.59000000    39.79000000     3.65000000
   H     35.23000000    38.73000000     4.13000000
   N     41.05000000    36.04000000     2.28000000
   C     42.44000000    36.12000000     1.92000000
   C     42.77000000    37.34000000     1.07000000
   O     41.85000000    38.05000000     0.68000000
   C     42.94000000    34.86000000     1.21000000
   O     42.56000000    34.84000000    -0.14000000
   H     40.49000000    35.45000000     1.68000000
   H     43.08000000    36.12000000     2.80000000
   H     42.45000000    34.01000000     1.69000000
   H     44.03000000    34.76000000     1.24000000
   H     42.97000000    34.08000000    -0.56000000
   N     44.06000000    37.54000000     0.76000000
   C     44.39000000    38.69000000    -0.05000000
   C     43.87000000    38.63000000    -1.48000000
   O     43.31000000    39.57000000    -2.04000000
   C     45.91000000    38.85000000     0.00000000
   H     44.74000000    36.84000000     1.02000000
   H     43.84000000    39.52000000     0.40000000
   H     46.29000000    39.07000000     1.00000000
   H     46.40000000    37.98000000    -0.42000000
   H     46.18000000    39.67000000    -0.66000000
   N     44.09000000    37.46000000    -2.09000000
   C     43.49000000    37.11000000    -3.36000000
   C     41.97000000    37.22000000    -3.38000000
   O     41.42000000    37.38000000    -4.46000000
   C     43.99000000    35.72000000    -3.73000000
   H     44.45000000    36.67000000    -1.57000000
   H     43.79000000    37.72000000    -4.22000000
   H     43.72000000    35.04000000    -2.92000000
   H     43.58000000    35.47000000    -4.71000000
   H     45.04000000    35.83000000    -4.02000000
   N     41.26000000    37.14000000    -2.25000000
   C     39.82000000    37.28000000    -2.23000000
   C     39.38000000    38.74000000    -2.27000000
   O     38.46000000    39.17000000    -2.97000000
   C     39.14000000    36.44000000    -1.16000000
   C     39.35000000    34.93000000    -1.26000000
   C     38.81000000    34.19000000    -0.04000000
   O     37.63000000    33.75000000    -0.08000000
   O     39.43000000    34.06000000     1.03000000
   H     41.68000000    37.07000000    -1.34000000
   H     39.43000000    36.81000000    -3.13000000
   H     38.06000000    36.58000000    -1.27000000
   H     39.40000000    36.81000000    -0.16000000
   H     40.42000000    34.77000000    -1.14000000
   H     39.11000000    34.50000000    -2.23000000
   N     40.13000000    39.56000000    -1.54000000
   C     39.98000000    41.00000000    -1.52000000
   H     39.05300000    41.26100000    -1.00900000
   H     40.82300000    41.44600000    -0.99200000
   H     39.95000000    41.37700000    -2.54200000
   H     40.81000000    39.14000000    -0.91000000
  Ca     37.82000000    31.80000000     1.61000000
   O     39.09000000    29.56000000     1.81000000
   H     38.96000000    28.81000000     1.23000000
   H     40.00000000    29.47000000     2.11000000

Ca 1.70



