%chk=CaMKII_loop3_90.0.chk
%nprocshared=48
%mem=10GB
%nosave
#b3lyp/svp scf=(tight,noincore) Test 
#IOP(5/87=12) Density=Current Pop=(MK,readradii) iop(6/33=2) iop(6/42=6)

CaMKII_loop3_90.0 

   0   1
   C     81.55300000    65.87000000    36.01000000
   C     81.06300000    65.57000000    37.42000000
   O     81.48300000    64.69000000    38.16000000
   H     82.58000000    65.52100000    35.90100000
   H     80.91700000    65.35800000    35.28700000
   H     81.51400000    66.94500000    35.83200000
   N     80.01300000    66.29000000    37.82000000
   C     79.61300000    66.41000000    39.20000000
   C     78.50300000    65.38000000    39.41000000
   O     77.50300000    65.50000000    38.71000000
   C     79.13300000    67.82000000    39.54000000
   C     78.56300000    68.17000000    40.90000000
   O     78.52300000    67.30000000    41.81000000
   O     78.02300000    69.29000000    41.06000000
   H     79.67300000    67.06000000    37.26000000
   H     80.41300000    66.26000000    39.92000000
   H     78.35300000    68.12000000    38.83000000
   H     79.98300000    68.49000000    39.41000000
   N     78.63300000    64.40000000    40.31000000
   C     77.70300000    63.35000000    40.65000000
   C     76.55300000    63.64000000    41.60000000
   O     75.78300000    62.72000000    41.82000000
   C     78.47300000    62.06000000    40.90000000
   C     77.92300000    60.68000000    40.55000000
   C     78.59300000    59.44000000    41.11000000
   C     78.51300000    59.30000000    42.63000000
   N     79.45300000    58.30000000    43.17000000
   H     79.44300000    64.44000000    40.92000000
   H     77.11300000    63.12000000    39.76000000
   H     78.68300000    62.13000000    41.97000000
   H     79.39300000    62.09000000    40.32000000
   H     77.93300000    60.62000000    39.46000000
   H     76.84300000    60.65000000    40.73000000
   H     79.59300000    59.34000000    40.68000000
   H     78.04300000    58.60000000    40.68000000
   H     77.50300000    59.00000000    42.91000000
   H     78.72300000    60.23000000    43.16000000
   H     80.36300000    58.72000000    43.32000000
   H     79.04300000    57.94000000    44.02000000
   H     79.55300000    57.51000000    42.56000000
   N     76.34300000    64.86000000    42.12000000
   C     75.10300000    65.14000000    42.81000000
   C     74.53300000    66.52000000    42.47000000
   O     73.47300000    66.81000000    43.03000000
   C     75.33300000    64.93000000    44.30000000
   C     76.49300000    65.72000000    44.90000000
   O     77.23300000    66.41000000    44.17000000
   O     76.75300000    65.52000000    46.11000000
   H     76.90300000    65.66000000    41.89000000
   H     74.35300000    64.43000000    42.46000000
   H     75.53300000    63.86000000    44.40000000
   H     74.47300000    65.15000000    44.94000000
   N     75.07300000    67.34000000    41.57000000
   C     74.64300000    68.70000000    41.31000000
   C     74.89300000    69.74000000    42.39000000
   O     74.19300000    70.75000000    42.39000000
   H     75.96300000    67.04000000    41.19000000
   H     73.58300000    68.75000000    41.05000000
   H     75.23300000    69.11000000    40.49000000
   N     75.80300000    69.54000000    43.35000000
   C     76.17300000    70.44000000    44.42000000
   C     77.25300000    71.46000000    44.11000000
   O     77.45300000    72.46000000    44.80000000
   C     76.66300000    69.58000000    45.59000000
   C     78.18300000    69.56000000    45.70000000
   N     78.71300000    70.26000000    46.70000000
   O     78.97300000    68.92000000    45.00000000
   H     76.24300000    68.63000000    43.31000000
   H     75.25300000    70.97000000    44.68000000
   H     76.31300000    68.55000000    45.51000000
   H     76.27300000    69.95000000    46.54000000
   H     78.15300000    70.90000000    47.24000000
   H     79.72300000    70.25000000    46.77000000
   N     77.91300000    71.35000000    42.95000000
   C     78.79300000    72.30000000    42.29000000
   C     80.24300000    72.24000000    42.73000000
   O     80.92300000    73.27000000    42.78000000
   H     77.77300000    70.55000000    42.36000000
   H     78.32300000    73.28000000    42.35000000
   H     78.76300000    72.03000000    41.23000000
   N     80.78300000    71.10000000    43.18000000
   C     82.19300000    70.82000000    43.24000000
   C     82.35300000    69.32000000    43.03000000
   O     81.50300000    68.48000000    43.32000000
   C     82.82300000    71.42000000    44.50000000
   C     82.09300000    71.30000000    45.81000000
   C     81.47300000    72.43000000    46.37000000
   C     82.06300000    70.10000000    46.53000000
   C     80.98300000    72.42000000    47.68000000
   C     81.67300000    70.06000000    47.87000000
   C     81.09300000    71.23000000    48.42000000
   O     80.68300000    71.13000000    49.71000000
   H     80.14300000    70.32000000    43.11000000
   H     82.59300000    71.24000000    42.32000000
   H     82.91300000    72.46000000    44.17000000
   H     83.86300000    71.16000000    44.68000000
   H     81.48300000    73.38000000    45.86000000
   H     82.47300000    69.19000000    46.10000000
   H     80.48300000    73.21000000    48.22000000
   H     81.73300000    69.10000000    48.36000000
   H     80.80300000    70.22000000    49.99000000
   N     83.59300000    69.00000000    42.66000000
   C     84.10300000    67.70000000    42.26000000
   C     85.07300000    67.15000000    43.29000000
   O     86.06300000    67.76000000    43.69000000
   C     84.74300000    67.81000000    40.88000000
   C     83.73300000    68.28000000    39.84000000
   C     85.46300000    66.52000000    40.48000000
   C     84.53300000    68.74000000    38.62000000
   H     84.24300000    69.77000000    42.60000000
   H     83.17300000    67.12000000    42.20000000
   H     85.43300000    68.65000000    40.97000000
   H     83.13300000    69.15000000    40.12000000
   H     83.11300000    67.43000000    39.58000000
   H     85.90300000    66.56000000    39.49000000
   H     86.24300000    66.31000000    41.21000000
   H     84.81300000    65.64000000    40.46000000
   H     83.73300000    69.10000000    37.97000000
   H     85.20300000    69.53000000    38.97000000
   H     85.09300000    67.99000000    38.07000000
   N     84.84300000    65.96000000    43.84000000
   C     85.82300000    65.16000000    44.56000000
   C     86.63300000    64.24000000    43.67000000
   O     86.09300000    63.89000000    42.63000000
   C     84.97300000    64.37000000    45.55000000
   O     84.07300000    63.44000000    44.99000000
   H     84.03300000    65.41000000    43.60000000
   H     86.54300000    65.80000000    45.08000000
   H     84.41300000    64.98000000    46.26000000
   H     85.72300000    63.83000000    46.13000000
   H     83.33300000    63.93000000    44.61000000
   N     87.67300000    63.63000000    44.24000000
   C     88.48300000    62.65000000    43.54000000
   C     87.76300000    61.40000000    43.04000000
   O     88.27300000    60.83000000    42.09000000
   C     89.71300000    62.33000000    44.38000000
   H     87.98300000    63.90000000    45.16000000
   H     88.84300000    63.07000000    42.60000000
   H     90.48300000    61.85000000    43.78000000
   H     90.28300000    63.25000000    44.56000000
   H     89.54300000    61.68000000    45.23000000
   N     86.62300000    61.05000000    43.64000000
   C     85.87300000    59.87000000    43.25000000
   C     84.96300000    60.15000000    42.07000000
   O     84.47300000    59.23000000    41.41000000
   C     85.03300000    59.47000000    44.46000000
   H     86.34300000    61.53000000    44.48000000
   H     86.58300000    59.09000000    42.95000000
   H     84.23300000    60.20000000    44.56000000
   H     84.56300000    58.53000000    44.18000000
   H     85.69300000    59.32000000    45.32000000
   N     84.76300000    61.43000000    41.75000000
   C     83.90300000    61.95000000    40.71000000
   C     84.75300000    62.25000000    39.49000000
   O     84.36300000    61.88000000    38.38000000
   C     83.17300000    63.23000000    41.12000000
   C     81.90300000    63.11000000    41.98000000
   C     81.63300000    64.41000000    42.70000000
   O     82.19300000    64.62000000    43.80000000
   O     80.88300000    65.31000000    42.26000000
   H     85.17300000    62.07000000    42.41000000
   H     83.11300000    61.26000000    40.42000000
   H     82.94300000    63.79000000    40.22000000
   H     83.82300000    63.90000000    41.68000000
   H     82.12300000    62.31000000    42.69000000
   H     81.05300000    62.83000000    41.36000000
   N     85.89300000    62.91000000    39.73000000
   C     86.90300000    63.12000000    38.71000000
   H     87.82800000    62.62700000    39.00900000
   H     86.55800000    62.70200000    37.76400000
   H     87.08300000    64.18800000    38.59100000
   H     86.11300000    63.11000000    40.69000000
  Ca     79.77000000    66.62000000    44.09000000
   O     79.22000000    66.18000000    46.57000000
   H     78.27000000    66.11000000    46.44000000
   H     79.33000000    66.10000000    47.52000000

Ca 1.70



