%chk=CaMKII_loop3_86.0.chk
%nprocshared=48
%mem=10GB
%nosave
#b3lyp/svp scf=(tight,noincore) Test 
#IOP(5/87=12) Density=Current Pop=(MK,readradii) iop(6/33=2) iop(6/42=6)

CaMKII_loop3_86.0 

   0   1
   C     81.41900000    65.05000000    33.60000000
   C     80.86900000    64.65000000    34.97000000
   O     81.15900000    63.57000000    35.48000000
   H     82.44100000    64.68400000    33.49800000
   H     80.79800000    64.61500000    32.81700000
   H     81.41200000    66.13600000    33.50800000
   N     80.03900000    65.53000000    35.54000000
   C     79.55900000    65.51000000    36.90000000
   C     78.24900000    64.73000000    36.84000000
   O     77.40900000    64.77000000    35.94000000
   C     79.43900000    66.91000000    37.48000000
   C     79.44900000    66.91000000    39.00000000
   O     78.41900000    66.80000000    39.70000000
   O     80.55900000    66.95000000    39.58000000
   H     79.89900000    66.41000000    35.06000000
   H     80.27900000    64.87000000    37.41000000
   H     78.56900000    67.47000000    37.13000000
   H     80.33900000    67.39000000    37.08000000
   N     78.02900000    63.99000000    37.93000000
   C     77.04900000    62.96000000    38.19000000
   C     76.00900000    63.39000000    39.22000000
   O     74.83900000    63.11000000    38.97000000
   C     77.81900000    61.71000000    38.60000000
   C     76.84900000    60.53000000    38.65000000
   C     77.61900000    59.22000000    38.80000000
   C     78.28900000    59.12000000    40.16000000
   N     78.98900000    57.83000000    40.23000000
   H     78.69900000    64.05000000    38.68000000
   H     76.62900000    62.74000000    37.21000000
   H     78.35900000    61.97000000    39.52000000
   H     78.51900000    61.57000000    37.78000000
   H     76.34900000    60.48000000    37.68000000
   H     76.11900000    60.64000000    39.44000000
   H     78.43900000    59.22000000    38.08000000
   H     76.94900000    58.37000000    38.66000000
   H     77.52900000    59.38000000    40.90000000
   H     78.99900000    59.95000000    40.21000000
   H     79.38900000    57.60000000    41.14000000
   H     78.32900000    57.10000000    40.00000000
   H     79.75900000    57.92000000    39.58000000
   N     76.44900000    64.01000000    40.31000000
   C     75.51900000    64.35000000    41.37000000
   C     75.03900000    65.79000000    41.32000000
   O     73.97900000    66.09000000    41.88000000
   C     76.19900000    64.15000000    42.72000000
   C     77.55900000    64.84000000    42.80000000
   O     77.69900000    66.06000000    42.56000000
   O     78.59900000    64.18000000    43.01000000
   H     77.44900000    64.17000000    40.40000000
   H     74.60900000    63.75000000    41.34000000
   H     76.32900000    63.12000000    43.04000000
   H     75.54900000    64.65000000    43.44000000
   N     75.71900000    66.75000000    40.68000000
   C     75.14900000    68.06000000    40.45000000
   C     75.45900000    69.12000000    41.50000000
   O     74.75900000    70.12000000    41.63000000
   H     76.63900000    66.43000000    40.43000000
   H     74.08900000    67.95000000    40.23000000
   H     75.52900000    68.37000000    39.47000000
   N     76.59900000    68.95000000    42.17000000
   C     77.16900000    69.94000000    43.07000000
   C     78.09900000    70.99000000    42.47000000
   O     78.43900000    71.93000000    43.19000000
   C     77.84900000    69.24000000    44.24000000
   C     79.08900000    68.42000000    43.88000000
   N     79.49900000    67.47000000    44.72000000
   O     79.74900000    68.56000000    42.85000000
   H     76.92900000    68.00000000    42.16000000
   H     76.33900000    70.49000000    43.51000000
   H     77.18900000    68.70000000    44.92000000
   H     78.29900000    69.98000000    44.89000000
   H     78.98900000    67.17000000    45.54000000
   H     80.42900000    67.09000000    44.65000000
   N     78.48900000    70.87000000    41.20000000
   C     79.30900000    71.77000000    40.41000000
   C     80.79900000    71.57000000    40.59000000
   O     81.54900000    72.44000000    40.14000000
   H     78.14900000    70.03000000    40.77000000
   H     79.05900000    72.79000000    40.70000000
   H     79.02900000    71.66000000    39.36000000
   N     81.21900000    70.54000000    41.33000000
   C     82.63900000    70.24000000    41.26000000
   C     82.87900000    68.74000000    41.16000000
   O     82.17900000    67.95000000    41.79000000
   C     83.34900000    70.87000000    42.45000000
   C     82.77900000    70.43000000    43.77000000
   C     81.81900000    71.22000000    44.41000000
   C     83.26900000    69.29000000    44.42000000
   C     81.30900000    70.84000000    45.66000000
   C     82.77900000    68.90000000    45.67000000
   C     81.72900000    69.63000000    46.26000000
   O     81.15900000    69.13000000    47.39000000
   H     80.61900000    69.94000000    41.87000000
   H     83.00900000    70.72000000    40.35000000
   H     83.43900000    71.96000000    42.35000000
   H     84.37900000    70.51000000    42.37000000
   H     81.38900000    72.05000000    43.87000000
   H     84.06900000    68.74000000    43.93000000
   H     80.47900000    71.32000000    46.16000000
   H     83.20900000    68.08000000    46.22000000
   H     81.55900000    68.31000000    47.69000000
   N     83.91900000    68.31000000    40.45000000
   C     84.20900000    67.02000000    39.87000000
   C     85.09900000    66.18000000    40.78000000
   O     86.11900000    66.73000000    41.18000000
   C     84.84900000    67.17000000    38.49000000
   C     83.80900000    67.56000000    37.44000000
   C     85.56900000    65.92000000    38.00000000
   C     84.46900000    68.21000000    36.22000000
   H     84.42900000    69.06000000    40.01000000
   H     83.23900000    66.53000000    39.75000000
   H     85.59900000    67.95000000    38.59000000
   H     83.08900000    68.23000000    37.90000000
   H     83.32900000    66.63000000    37.13000000
   H     85.94900000    66.10000000    37.00000000
   H     86.37900000    65.60000000    38.65000000
   H     84.89900000    65.06000000    37.92000000
   H     85.23900000    67.59000000    35.76000000
   H     83.75900000    68.42000000    35.43000000
   H     84.88900000    69.18000000    36.50000000
   N     84.76900000    64.90000000    40.99000000
   C     85.54900000    63.99000000    41.80000000
   C     86.29900000    62.97000000    40.96000000
   O     85.79900000    62.68000000    39.87000000
   C     84.69900000    63.51000000    42.98000000
   O     83.63900000    62.77000000    42.42000000
   H     83.87900000    64.61000000    40.62000000
   H     86.33900000    64.56000000    42.29000000
   H     84.24900000    64.37000000    43.48000000
   H     85.36900000    62.92000000    43.60000000
   H     83.14900000    63.37000000    41.86000000
   N     87.26900000    62.26000000    41.54000000
   C     88.01900000    61.25000000    40.82000000
   C     87.15900000    60.13000000    40.25000000
   O     87.30900000    59.81000000    39.07000000
   C     89.15900000    60.81000000    41.73000000
   H     87.59900000    62.55000000    42.45000000
   H     88.38900000    61.80000000    39.95000000
   H     90.05900000    60.63000000    41.14000000
   H     89.48900000    61.61000000    42.40000000
   H     88.83900000    59.99000000    42.37000000
   N     86.18900000    59.63000000    41.02000000
   C     85.17900000    58.67000000    40.63000000
   C     84.21900000    59.14000000    39.55000000
   O     83.78900000    58.33000000    38.73000000
   C     84.33900000    58.32000000    41.85000000
   H     86.15900000    59.94000000    41.98000000
   H     85.70900000    57.77000000    40.31000000
   H     83.94900000    59.25000000    42.27000000
   H     83.50900000    57.71000000    41.49000000
   H     84.97900000    57.84000000    42.59000000
   N     83.96900000    60.44000000    39.36000000
   C     83.24900000    60.98000000    38.23000000
   C     84.19900000    61.08000000    37.04000000
   O     83.80900000    60.70000000    35.94000000
   C     82.62900000    62.34000000    38.56000000
   C     81.47900000    62.24000000    39.56000000
   C     81.01900000    63.49000000    40.29000000
   O     81.81900000    64.19000000    40.96000000
   O     79.83900000    63.88000000    40.16000000
   H     84.54900000    61.06000000    39.90000000
   H     82.46900000    60.26000000    37.97000000
   H     82.29900000    62.77000000    37.61000000
   H     83.38900000    62.98000000    39.02000000
   H     81.77900000    61.64000000    40.42000000
   H     80.62900000    61.74000000    39.09000000
   N     85.43900000    61.53000000    37.24000000
   C     86.32900000    61.62000000    36.09000000
   H     87.29400000    61.18000000    36.34300000
   H     85.89300000    61.08000000    35.24900000
   H     86.46700000    62.66600000    35.81800000
   H     85.66900000    61.95000000    38.13000000
  Ca     80.24000000    66.13000000    41.89000000
   O     81.91000000    66.02000000    43.97000000
   H     82.00000000    65.42000000    44.71000000
   H     82.69000000    66.58000000    44.02000000

Ca 1.70



