%chk=CaMKII_loop3_108.0.chk
%nprocshared=48
%mem=10GB
%nosave
#b3lyp/svp scf=(tight,noincore) Test 
#IOP(5/87=12) Density=Current Pop=(MK,readradii) iop(6/33=2) iop(6/42=6)

CaMKII_loop3_108.0 

   0   1
   C     16.89000000    44.71000000    28.66300000
   C     17.94000000    45.29000000    29.60300000
   O     19.08000000    44.86000000    29.52300000
   H     16.02700000    45.37500000    28.62800000
   H     17.31200000    44.61000000    27.66300000
   H     16.57800000    43.73100000    29.02600000
   N     17.57000000    46.20000000    30.51300000
   C     18.42000000    46.63000000    31.59300000
   C     18.26000000    45.70000000    32.78300000
   O     17.13000000    45.40000000    33.14300000
   C     18.12000000    48.08000000    31.98300000
   C     18.91000000    48.53000000    33.20300000
   O     19.95000000    49.19000000    33.00300000
   O     18.41000000    48.21000000    34.30300000
   H     16.62000000    46.55000000    30.49300000
   H     19.43000000    46.56000000    31.17300000
   H     17.09000000    48.25000000    32.27300000
   H     18.37000000    48.72000000    31.14300000
   N     19.31000000    45.26000000    33.49300000
   C     19.29000000    44.23000000    34.50300000
   C     19.43000000    44.72000000    35.94300000
   O     18.73000000    44.30000000    36.86300000
   C     20.29000000    43.12000000    34.17300000
   C     19.93000000    42.42000000    32.87300000
   C     20.78000000    41.22000000    32.45300000
   C     20.51000000    40.04000000    33.37300000
   N     19.11000000    39.59000000    33.30300000
   H     20.26000000    45.50000000    33.24300000
   H     18.29000000    43.79000000    34.53300000
   H     20.18000000    42.38000000    34.96300000
   H     21.34000000    43.44000000    34.20300000
   H     19.99000000    43.18000000    32.09300000
   H     18.89000000    42.12000000    33.03300000
   H     21.84000000    41.47000000    32.44300000
   H     20.51000000    41.02000000    31.41300000
   H     20.77000000    40.45000000    34.34300000
   H     21.14000000    39.20000000    33.05300000
   H     18.42000000    40.28000000    33.07300000
   H     19.04000000    38.78000000    32.70300000
   H     18.76000000    39.21000000    34.17300000
   N     20.29000000    45.69000000    36.25300000
   C     20.46000000    46.23000000    37.58300000
   C     19.37000000    47.23000000    37.93300000
   O     19.20000000    47.54000000    39.10300000
   C     21.86000000    46.85000000    37.63300000
   C     22.29000000    47.67000000    36.42300000
   O     21.50000000    48.52000000    35.97300000
   O     23.31000000    47.35000000    35.76300000
   H     20.71000000    46.05000000    35.40300000
   H     20.50000000    45.48000000    38.36300000
   H     22.51000000    45.97000000    37.67300000
   H     21.89000000    47.49000000    38.51300000
   N     18.66000000    47.79000000    36.94300000
   C     17.68000000    48.84000000    37.14300000
   C     18.29000000    50.19000000    37.48300000
   O     17.57000000    51.01000000    38.06300000
   H     18.94000000    47.69000000    35.98300000
   H     16.97000000    48.58000000    37.93300000
   H     17.09000000    48.97000000    36.24300000
   N     19.52000000    50.45000000    37.05300000
   C     19.92000000    51.82000000    36.80300000
   C     19.33000000    52.58000000    35.62300000
   O     19.32000000    53.81000000    35.60300000
   C     21.42000000    52.04000000    37.02300000
   C     22.24000000    51.47000000    35.88300000
   N     23.55000000    51.32000000    36.07300000
   O     21.78000000    51.21000000    34.77300000
   H     20.11000000    49.67000000    36.77300000
   H     19.42000000    52.31000000    37.63300000
   H     21.76000000    51.48000000    37.90300000
   H     21.65000000    53.08000000    37.25300000
   H     23.95000000    51.51000000    36.97300000
   H     24.08000000    51.07000000    35.24300000
   N     18.78000000    51.83000000    34.66300000
   C     18.09000000    52.39000000    33.51300000
   C     18.95000000    52.64000000    32.28300000
   O     18.58000000    53.44000000    31.42300000
   H     18.75000000    50.85000000    34.87300000
   H     17.70000000    53.36000000    33.83300000
   H     17.24000000    51.78000000    33.22300000
   N     20.10000000    51.97000000    32.18300000
   C     21.08000000    52.07000000    31.13300000
   C     21.47000000    50.67000000    30.70300000
   O     22.27000000    50.06000000    31.41300000
   C     22.24000000    52.91000000    31.66300000
   C     21.92000000    54.25000000    32.27300000
   C     21.75000000    55.33000000    31.39300000
   C     21.73000000    54.40000000    33.64300000
   C     21.46000000    56.62000000    31.85300000
   C     21.40000000    55.67000000    34.14300000
   C     21.25000000    56.74000000    33.24300000
   O     20.58000000    57.87000000    33.60300000
   H     20.28000000    51.27000000    32.89300000
   H     20.66000000    52.54000000    30.23300000
   H     22.91000000    53.05000000    30.81300000
   H     22.77000000    52.29000000    32.39300000
   H     21.88000000    55.16000000    30.33300000
   H     21.87000000    53.58000000    34.33300000
   H     21.12000000    57.43000000    31.22300000
   H     21.27000000    55.78000000    35.21300000
   H     20.53000000    58.48000000    32.86300000
   N     20.93000000    50.20000000    29.57300000
   C     21.21000000    48.90000000    28.99300000
   C     22.67000000    48.88000000    28.56300000
   O     23.00000000    49.83000000    27.86300000
   C     20.35000000    48.67000000    27.75300000
   C     18.85000000    48.63000000    28.02300000
   C     20.74000000    47.37000000    27.04300000
   C     18.05000000    48.89000000    26.74300000
   H     20.16000000    50.72000000    29.17300000
   H     21.02000000    48.18000000    29.79300000
   H     20.51000000    49.61000000    27.22300000
   H     18.54000000    49.37000000    28.76300000
   H     18.57000000    47.63000000    28.33300000
   H     21.82000000    47.33000000    26.88300000
   H     20.46000000    46.50000000    27.63300000
   H     20.22000000    47.31000000    26.08300000
   H     18.21000000    49.95000000    26.58300000
   H     18.25000000    48.19000000    25.94300000
   H     16.98000000    48.75000000    26.90300000
   N     23.39000000    47.78000000    28.74300000
   C     24.81000000    47.65000000    28.44300000
   C     25.01000000    46.36000000    27.67300000
   O     24.04000000    45.64000000    27.43300000
   C     25.69000000    47.68000000    29.68300000
   O     25.36000000    46.48000000    30.35300000
   H     23.09000000    47.00000000    29.31300000
   H     25.17000000    48.47000000    27.81300000
   H     25.49000000    48.55000000    30.30300000
   H     26.71000000    47.62000000    29.29300000
   H     24.92000000    46.65000000    31.19300000
   N     26.14000000    46.28000000    26.97300000
   C     26.31000000    45.17000000    26.06300000
   C     26.22000000    43.82000000    26.77300000
   O     25.70000000    42.84000000    26.23300000
   C     27.60000000    45.40000000    25.28300000
   H     26.94000000    46.81000000    27.29300000
   H     25.51000000    45.13000000    25.32300000
   H     27.72000000    44.61000000    24.53300000
   H     27.43000000    46.37000000    24.81300000
   H     28.45000000    45.29000000    25.95300000
   N     26.55000000    43.76000000    28.06300000
   C     26.60000000    42.56000000    28.87300000
   C     25.24000000    42.15000000    29.42300000
   O     24.93000000    40.97000000    29.48300000
   C     27.70000000    42.88000000    29.87300000
   H     26.94000000    44.61000000    28.43300000
   H     26.91000000    41.69000000    28.29300000
   H     28.66000000    43.27000000    29.53300000
   H     27.38000000    43.66000000    30.55300000
   H     27.94000000    42.01000000    30.49300000
   N     24.36000000    43.15000000    29.57300000
   C     22.93000000    42.99000000    29.78300000
   C     22.15000000    42.64000000    28.52300000
   O     21.18000000    41.91000000    28.74300000
   C     22.35000000    44.22000000    30.47300000
   C     22.94000000    44.61000000    31.82300000
   C     22.55000000    46.02000000    32.25300000
   O     23.02000000    47.00000000    31.62300000
   O     21.80000000    46.34000000    33.19300000
   H     24.66000000    44.07000000    29.28300000
   H     22.78000000    42.12000000    30.42300000
   H     21.28000000    44.03000000    30.56300000
   H     22.51000000    45.03000000    29.76300000
   H     24.01000000    44.57000000    31.60300000
   H     22.58000000    43.85000000    32.52300000
   N     22.53000000    43.21000000    27.38300000
   C     22.03000000    42.88000000    26.06300000
   H     21.14900000    43.48400000    25.84800000
   H     22.80100000    43.08500000    25.32000000
   H     21.76300000    41.82400000    26.02800000
   H     23.31000000    43.84000000    27.50300000
  Ca     22.43000000    48.85000000    33.65000000
   O     24.50000000    50.38000000    33.42000000
   H     25.37000000    50.04000000    33.64000000
   H     24.68000000    51.23000000    33.02000000

Ca 1.70



