%chk=CaMKII_loop3_89.0.chk
%nprocshared=48
%mem=10GB
%nosave
#b3lyp/svp scf=(tight,noincore) Test 
#IOP(5/87=12) Density=Current Pop=(MK,readradii) iop(6/33=2) iop(6/42=6)

CaMKII_loop3_89.0 

   0   1
   C     69.97000000    50.24000000    30.34000000
   C     69.23000000    49.03000000    30.90000000
   O     69.32000000    48.01000000    30.23000000
   H     70.94700000    49.92900000    29.97000000
   H     69.39400000    50.67300000    29.52200000
   H     70.10000000    50.98300000    31.12700000
   N     68.56000000    49.09000000    32.06000000
   C     68.02000000    47.88000000    32.64000000
   C     66.70000000    47.58000000    31.94000000
   O     65.70000000    48.23000000    32.23000000
   C     67.89000000    48.02000000    34.15000000
   C     67.12000000    46.85000000    34.77000000
   O     66.62000000    47.02000000    35.90000000
   O     66.95000000    45.79000000    34.14000000
   H     68.51000000    49.97000000    32.55000000
   H     68.71000000    47.06000000    32.44000000
   H     67.44000000    48.97000000    34.44000000
   H     68.85000000    48.21000000    34.62000000
   N     66.75000000    46.63000000    31.00000000
   C     65.75000000    46.38000000    29.98000000
   C     64.44000000    45.72000000    30.41000000
   O     63.39000000    46.06000000    29.86000000
   C     66.56000000    45.70000000    28.89000000
   C     65.76000000    45.06000000    27.76000000
   C     66.46000000    44.78000000    26.43000000
   C     67.69000000    43.87000000    26.46000000
   N     67.50000000    42.54000000    27.06000000
   H     67.69000000    46.33000000    30.80000000
   H     65.52000000    47.32000000    29.48000000
   H     67.13000000    44.88000000    29.33000000
   H     67.25000000    46.48000000    28.57000000
   H     64.88000000    45.70000000    27.65000000
   H     65.51000000    44.09000000    28.21000000
   H     66.70000000    45.77000000    26.05000000
   H     65.77000000    44.34000000    25.71000000
   H     68.46000000    44.32000000    27.08000000
   H     67.93000000    43.67000000    25.41000000
   H     66.75000000    41.95000000    26.74000000
   H     68.28000000    41.94000000    26.87000000
   H     67.37000000    42.54000000    28.06000000
   N     64.49000000    44.77000000    31.34000000
   C     63.39000000    44.16000000    32.07000000
   C     62.98000000    44.92000000    33.33000000
   O     62.01000000    44.51000000    33.96000000
   C     63.89000000    42.79000000    32.54000000
   C     65.29000000    42.67000000    33.10000000
   O     66.14000000    42.04000000    32.43000000
   O     65.56000000    43.10000000    34.24000000
   H     65.41000000    44.46000000    31.60000000
   H     62.52000000    44.00000000    31.43000000
   H     63.89000000    42.18000000    31.63000000
   H     63.22000000    42.26000000    33.23000000
   N     63.75000000    45.90000000    33.79000000
   C     63.41000000    46.61000000    35.01000000
   C     63.54000000    45.86000000    36.34000000
   O     62.89000000    46.22000000    37.31000000
   H     64.73000000    45.92000000    33.55000000
   H     62.38000000    46.95000000    34.94000000
   H     63.97000000    47.53000000    35.15000000
   N     64.48000000    44.92000000    36.44000000
   C     64.71000000    44.24000000    37.70000000
   C     65.49000000    45.03000000    38.74000000
   O     65.91000000    44.58000000    39.80000000
   C     65.25000000    42.85000000    37.39000000
   C     66.77000000    42.81000000    37.43000000
   N     67.29000000    41.96000000    38.31000000
   O     67.42000000    43.66000000    36.82000000
   H     65.08000000    44.68000000    35.66000000
   H     63.74000000    44.05000000    38.17000000
   H     64.80000000    42.53000000    36.44000000
   H     64.82000000    42.22000000    38.16000000
   H     66.66000000    41.23000000    38.59000000
   H     68.29000000    41.85000000    38.39000000
   N     65.81000000    46.28000000    38.40000000
   C     66.65000000    47.17000000    39.17000000
   C     68.16000000    46.99000000    39.10000000
   O     68.90000000    47.43000000    39.98000000
   H     65.70000000    46.53000000    37.43000000
   H     66.35000000    47.27000000    40.22000000
   H     66.55000000    48.15000000    38.70000000
   N     68.68000000    46.34000000    38.05000000
   C     70.07000000    45.99000000    37.88000000
   C     70.50000000    46.02000000    36.42000000
   O     69.79000000    45.50000000    35.56000000
   C     70.38000000    44.61000000    38.47000000
   C     70.22000000    44.49000000    39.97000000
   C     71.40000000    44.53000000    40.74000000
   C     68.99000000    44.31000000    40.61000000
   C     71.31000000    44.34000000    42.12000000
   C     68.87000000    44.22000000    42.00000000
   C     70.06000000    44.22000000    42.76000000
   O     69.97000000    44.13000000    44.12000000
   H     68.04000000    45.98000000    37.36000000
   H     70.64000000    46.78000000    38.37000000
   H     71.42000000    44.40000000    38.23000000
   H     69.70000000    43.93000000    37.96000000
   H     72.37000000    44.79000000    40.36000000
   H     68.11000000    44.27000000    39.98000000
   H     72.21000000    44.40000000    42.71000000
   H     67.93000000    44.12000000    42.51000000
   H     69.05000000    44.06000000    44.38000000
   N     71.73000000    46.45000000    36.14000000
   C     72.43000000    46.26000000    34.89000000
   C     73.43000000    45.12000000    34.92000000
   O     74.06000000    44.89000000    35.95000000
   C     73.10000000    47.51000000    34.33000000
   C     72.66000000    48.84000000    34.94000000
   C     72.90000000    47.51000000    32.82000000
   C     73.27000000    50.10000000    34.33000000
   H     72.21000000    47.02000000    36.83000000
   H     71.67000000    45.99000000    34.14000000
   H     74.17000000    47.43000000    34.50000000
   H     72.87000000    48.78000000    36.00000000
   H     71.57000000    48.88000000    34.86000000
   H     71.84000000    47.64000000    32.63000000
   H     73.48000000    48.31000000    32.35000000
   H     73.27000000    46.59000000    32.36000000
   H     72.84000000    50.99000000    34.79000000
   H     74.35000000    49.95000000    34.41000000
   H     73.09000000    50.25000000    33.26000000
   N     73.70000000    44.41000000    33.82000000
   C     74.87000000    43.59000000    33.58000000
   C     75.28000000    43.60000000    32.12000000
   O     74.66000000    44.25000000    31.28000000
   C     74.50000000    42.22000000    34.16000000
   O     73.41000000    41.72000000    33.41000000
   H     73.15000000    44.75000000    33.04000000
   H     75.67000000    44.05000000    34.16000000
   H     74.20000000    42.35000000    35.20000000
   H     75.35000000    41.56000000    34.04000000
   H     73.06000000    40.91000000    33.78000000
   N     76.37000000    42.87000000    31.86000000
   C     77.14000000    43.13000000    30.66000000
   C     76.31000000    42.86000000    29.42000000
   O     76.47000000    43.61000000    28.46000000
   C     78.32000000    42.16000000    30.61000000
   H     76.75000000    42.27000000    32.57000000
   H     77.47000000    44.17000000    30.71000000
   H     79.11000000    42.34000000    29.89000000
   H     78.77000000    42.09000000    31.60000000
   H     77.86000000    41.20000000    30.37000000
   N     75.44000000    41.85000000    29.37000000
   C     74.62000000    41.59000000    28.20000000
   C     73.62000000    42.69000000    27.87000000
   O     73.38000000    43.04000000    26.71000000
   C     74.01000000    40.21000000    28.43000000
   H     75.41000000    41.23000000    30.17000000
   H     75.20000000    41.53000000    27.28000000
   H     73.47000000    39.94000000    27.52000000
   H     74.74000000    39.41000000    28.52000000
   H     73.32000000    40.21000000    29.28000000
   N     72.97000000    43.24000000    28.90000000
   C     72.01000000    44.32000000    28.75000000
   C     72.70000000    45.65000000    28.52000000
   O     72.18000000    46.57000000    27.88000000
   C     71.26000000    44.50000000    30.06000000
   C     70.15000000    43.45000000    30.10000000
   C     69.52000000    43.37000000    31.48000000
   O     69.77000000    42.41000000    32.25000000
   O     68.62000000    44.19000000    31.75000000
   H     73.23000000    42.96000000    29.84000000
   H     71.37000000    44.15000000    27.88000000
   H     70.75000000    45.47000000    30.06000000
   H     71.99000000    44.40000000    30.85000000
   H     70.47000000    42.49000000    29.69000000
   H     69.42000000    43.86000000    29.41000000
   N     73.94000000    45.82000000    29.00000000
   C     74.71000000    47.01000000    28.70000000
   H     75.66900000    46.72200000    28.27000000
   H     74.16300000    47.62700000    27.98700000
   H     74.87800000    47.57500000    29.61700000
   H     74.31000000    45.14000000    29.65000000
  Ca     68.06000000    43.49000000    34.12000000
   O     67.92000000    41.03000000    35.18000000
   H     68.36000000    40.75000000    35.98000000
   H     67.31000000    40.33000000    34.97000000

Ca 1.70



