%chk=CaMKII_loop3_77.0.chk
%nprocshared=48
%mem=10GB
%nosave
#b3lyp/svp scf=(tight,noincore) Test 
#IOP(5/87=12) Density=Current Pop=(MK,readradii) iop(6/33=2) iop(6/42=6)

CaMKII_loop3_77.0 

   0   1
   C     62.61000000    45.59000000    39.67000000
   C     61.92000000    44.91000000    40.85000000
   O     62.30000000    43.81000000    41.25000000
   H     63.61400000    45.18200000    39.55200000
   H     62.03700000    45.41100000    38.76100000
   H     62.67400000    46.66200000    39.85400000
   N     60.93000000    45.60000000    41.42000000
   C     60.25000000    45.23000000    42.64000000
   C     59.07000000    44.29000000    42.43000000
   O     57.96000000    44.55000000    41.98000000
   C     59.71000000    46.53000000    43.22000000
   C     59.04000000    46.47000000    44.58000000
   O     58.54000000    47.53000000    45.03000000
   O     59.15000000    45.42000000    45.24000000
   H     60.62000000    46.40000000    40.89000000
   H     61.00000000    44.81000000    43.31000000
   H     59.08000000    46.87000000    42.39000000
   H     60.45000000    47.32000000    43.28000000
   N     59.37000000    43.01000000    42.66000000
   C     58.51000000    41.90000000    42.30000000
   C     57.25000000    41.81000000    43.15000000
   O     56.28000000    41.37000000    42.53000000
   C     59.46000000    40.70000000    42.27000000
   C     60.66000000    40.57000000    41.34000000
   C     60.35000000    40.84000000    39.87000000
   C     61.53000000    41.13000000    38.95000000
   N     61.09000000    41.08000000    37.55000000
   H     60.32000000    42.78000000    42.91000000
   H     58.18000000    42.13000000    41.29000000
   H     58.76000000    39.90000000    42.04000000
   H     59.76000000    40.48000000    43.29000000
   H     61.04000000    39.55000000    41.34000000
   H     61.47000000    41.21000000    41.69000000
   H     59.60000000    41.63000000    39.74000000
   H     59.83000000    39.96000000    39.50000000
   H     62.35000000    40.42000000    39.11000000
   H     61.96000000    42.12000000    39.10000000
   H     61.89000000    41.24000000    36.96000000
   H     60.75000000    40.16000000    37.30000000
   H     60.48000000    41.87000000    37.34000000
   N     57.26000000    42.25000000    44.40000000
   C     56.11000000    42.27000000    45.29000000
   C     55.46000000    43.63000000    45.49000000
   O     54.39000000    43.65000000    46.10000000
   C     56.50000000    41.76000000    46.67000000
   C     57.81000000    42.36000000    47.15000000
   O     58.82000000    41.66000000    47.33000000
   O     57.79000000    43.60000000    47.36000000
   H     58.12000000    42.55000000    44.85000000
   H     55.32000000    41.65000000    44.86000000
   H     56.67000000    40.68000000    46.59000000
   H     55.72000000    41.85000000    47.43000000
   N     55.99000000    44.72000000    44.93000000
   C     55.26000000    45.97000000    44.90000000
   C     55.34000000    46.78000000    46.19000000
   O     54.78000000    47.87000000    46.27000000
   H     56.94000000    44.68000000    44.61000000
   H     54.26000000    45.91000000    44.46000000
   H     55.85000000    46.62000000    44.26000000
   N     56.13000000    46.36000000    47.18000000
   C     56.33000000    46.92000000    48.50000000
   C     57.00000000    48.28000000    48.59000000
   O     56.88000000    48.89000000    49.65000000
   C     56.88000000    45.95000000    49.54000000
   C     58.35000000    45.58000000    49.37000000
   N     58.76000000    44.61000000    50.19000000
   O     59.13000000    46.09000000    48.57000000
   H     56.66000000    45.52000000    46.98000000
   H     55.34000000    47.17000000    48.88000000
   H     56.26000000    45.06000000    49.50000000
   H     56.98000000    46.44000000    50.51000000
   H     58.03000000    44.14000000    50.70000000
   H     59.76000000    44.50000000    50.22000000
   N     57.68000000    48.81000000    47.57000000
   C     58.19000000    50.17000000    47.60000000
   C     59.70000000    50.18000000    47.82000000
   O     60.26000000    51.26000000    48.03000000
   H     57.76000000    48.28000000    46.71000000
   H     57.76000000    50.80000000    48.38000000
   H     57.82000000    50.61000000    46.67000000
   N     60.36000000    49.03000000    47.80000000
   C     61.80000000    48.84000000    47.72000000
   C     62.22000000    47.61000000    46.94000000
   O     61.59000000    46.56000000    46.82000000
   C     62.49000000    48.95000000    49.08000000
   C     62.02000000    48.00000000    50.16000000
   C     60.81000000    48.13000000    50.85000000
   C     62.81000000    46.90000000    50.49000000
   C     60.36000000    47.28000000    51.87000000
   C     62.48000000    46.12000000    51.61000000
   C     61.25000000    46.26000000    52.27000000
   O     60.88000000    45.57000000    53.39000000
   H     59.85000000    48.16000000    47.86000000
   H     62.25000000    49.60000000    47.09000000
   H     62.22000000    49.90000000    49.55000000
   H     63.57000000    48.99000000    48.97000000
   H     60.20000000    49.00000000    50.63000000
   H     63.80000000    46.90000000    50.05000000
   H     59.43000000    47.43000000    52.39000000
   H     63.20000000    45.43000000    52.02000000
   H     61.47000000    44.89000000    53.72000000
   N     63.44000000    47.73000000    46.42000000
   C     64.16000000    46.68000000    45.72000000
   C     65.01000000    45.95000000    46.76000000
   O     65.67000000    46.58000000    47.59000000
   C     65.01000000    47.26000000    44.60000000
   C     64.08000000    47.76000000    43.49000000
   C     65.90000000    46.20000000    43.95000000
   C     64.75000000    48.63000000    42.44000000
   H     63.99000000    48.51000000    46.73000000
   H     63.50000000    46.00000000    45.18000000
   H     65.62000000    48.10000000    44.94000000
   H     63.28000000    48.34000000    43.94000000
   H     63.53000000    46.94000000    43.02000000
   H     66.66000000    45.78000000    44.62000000
   H     65.29000000    45.32000000    43.73000000
   H     66.35000000    46.52000000    43.02000000
   H     65.47000000    48.13000000    41.80000000
   H     64.00000000    49.12000000    41.82000000
   H     65.38000000    49.34000000    42.99000000
   N     65.04000000    44.63000000    46.89000000
   C     65.87000000    43.89000000    47.81000000
   C     66.97000000    43.10000000    47.12000000
   O     66.93000000    42.88000000    45.91000000
   C     64.96000000    42.95000000    48.60000000
   O     64.44000000    41.88000000    47.84000000
   H     64.54000000    44.07000000    46.20000000
   H     66.24000000    44.61000000    48.54000000
   H     64.22000000    43.56000000    49.11000000
   H     65.52000000    42.42000000    49.36000000
   H     63.68000000    42.10000000    47.29000000
   N     67.97000000    42.61000000    47.86000000
   C     69.00000000    41.81000000    47.22000000
   C     68.53000000    40.53000000    46.55000000
   O     69.12000000    40.10000000    45.57000000
   C     70.16000000    41.48000000    48.16000000
   H     68.08000000    42.81000000    48.84000000
   H     69.47000000    42.38000000    46.42000000
   H     70.95000000    41.05000000    47.55000000
   H     70.47000000    42.38000000    48.69000000
   H     69.91000000    40.67000000    48.84000000
   N     67.53000000    39.79000000    47.05000000
   C     66.84000000    38.68000000    46.43000000
   C     66.21000000    39.11000000    45.12000000
   O     66.48000000    38.44000000    44.12000000
   C     65.81000000    38.13000000    47.41000000
   H     67.04000000    40.32000000    47.76000000
   H     67.55000000    37.89000000    46.16000000
   H     65.03000000    38.87000000    47.56000000
   H     65.38000000    37.23000000    46.97000000
   H     66.26000000    37.86000000    48.37000000
   N     65.64000000    40.32000000    44.99000000
   C     65.08000000    40.83000000    43.76000000
   C     66.13000000    41.38000000    42.80000000
   O     65.85000000    41.39000000    41.60000000
   C     64.00000000    41.86000000    44.07000000
   C     62.86000000    41.29000000    44.92000000
   C     61.99000000    42.47000000    45.32000000
   O     60.74000000    42.48000000    45.23000000
   O     62.49000000    43.47000000    45.88000000
   H     65.75000000    40.94000000    45.78000000
   H     64.68000000    40.00000000    43.17000000
   H     63.50000000    42.25000000    43.18000000
   H     64.44000000    42.67000000    44.65000000
   H     63.17000000    40.71000000    45.79000000
   H     62.29000000    40.58000000    44.31000000
   N     67.26000000    41.97000000    43.18000000
   C     68.35000000    42.34000000    42.30000000
   H     69.23900000    41.76700000    42.56300000
   H     68.07300000    42.12600000    41.26800000
   H     68.55900000    43.40400000    42.40700000
   H     67.49000000    42.01000000    44.16000000
  Ca     60.30000000    44.25000000    47.12000000
   O     61.81000000    44.35000000    49.40000000
   H     62.04000000    43.61000000    49.96000000
   H     62.21000000    45.11000000    49.83000000

Ca 1.70



