%chk=CaMKII_loop3_100.0.chk
%nprocshared=48
%mem=10GB
%nosave
#b3lyp/svp scf=(tight,noincore) Test 
#IOP(5/87=12) Density=Current Pop=(MK,readradii) iop(6/33=2) iop(6/42=6)

CaMKII_loop3_100.0 

   0   1
   C     82.16000000    42.03000000    25.39000000
   C     82.26000000    40.70000000    26.12000000
   O     82.96000000    39.82000000    25.62000000
   H     81.49000000    42.69400000    25.93600000
   H     83.14800000    42.48500000    25.32600000
   H     81.76900000    41.86600000    24.38600000
   N     81.65000000    40.58000000    27.30000000
   C     81.35000000    39.33000000    27.97000000
   C     79.92000000    38.84000000    27.75000000
   O     78.98000000    39.21000000    28.44000000
   C     81.77000000    39.53000000    29.42000000
   C     81.31000000    38.35000000    30.26000000
   O     81.46000000    37.15000000    29.94000000
   O     80.94000000    38.66000000    31.42000000
   H     81.09000000    41.35000000    27.64000000
   H     81.88000000    38.49000000    27.52000000
   H     81.33000000    40.45000000    29.79000000
   H     82.85000000    39.61000000    29.55000000
   N     79.82000000    38.21000000    26.57000000
   C     78.58000000    37.72000000    26.00000000
   C     78.14000000    36.40000000    26.61000000
   O     76.93000000    36.17000000    26.72000000
   C     78.75000000    37.42000000    24.51000000
   C     79.20000000    38.52000000    23.56000000
   C     79.43000000    37.97000000    22.15000000
   C     79.58000000    39.09000000    21.12000000
   N     80.87000000    39.77000000    21.31000000
   H     80.69000000    37.96000000    26.12000000
   H     77.82000000    38.50000000    26.05000000
   H     77.76000000    37.06000000    24.21000000
   H     79.40000000    36.57000000    24.28000000
   H     80.15000000    38.97000000    23.82000000
   H     78.44000000    39.30000000    23.58000000
   H     78.52000000    37.39000000    21.97000000
   H     80.28000000    37.29000000    22.12000000
   H     78.74000000    39.78000000    21.13000000
   H     79.61000000    38.64000000    20.13000000
   H     81.22000000    40.11000000    20.42000000
   H     80.76000000    40.57000000    21.92000000
   H     81.64000000    39.15000000    21.49000000
   N     79.03000000    35.51000000    27.03000000
   C     78.68000000    34.39000000    27.87000000
   C     78.34000000    34.80000000    29.30000000
   O     77.61000000    34.06000000    29.96000000
   C     79.80000000    33.36000000    27.79000000
   C     81.09000000    34.06000000    28.18000000
   O     81.57000000    33.94000000    29.33000000
   O     81.67000000    34.87000000    27.43000000
   H     80.01000000    35.79000000    27.00000000
   H     77.84000000    33.88000000    27.40000000
   H     79.82000000    32.98000000    26.77000000
   H     79.66000000    32.52000000    28.48000000
   N     78.79000000    35.96000000    29.77000000
   C     78.24000000    36.67000000    30.91000000
   C     78.74000000    36.21000000    32.27000000
   O     77.99000000    36.34000000    33.23000000
   H     79.45000000    36.51000000    29.24000000
   H     77.15000000    36.56000000    30.97000000
   H     78.52000000    37.71000000    30.73000000
   N     79.98000000    35.73000000    32.34000000
   C     80.67000000    35.11000000    33.45000000
   C     81.40000000    36.14000000    34.30000000
   O     81.68000000    35.94000000    35.49000000
   C     81.67000000    34.08000000    32.94000000
   C     83.03000000    34.68000000    32.62000000
   N     84.08000000    34.14000000    33.24000000
   O     83.18000000    35.51000000    31.73000000
   H     80.57000000    35.84000000    31.52000000
   H     79.89000000    34.58000000    34.01000000
   H     81.38000000    33.50000000    32.07000000
   H     81.85000000    33.40000000    33.78000000
   H     83.94000000    33.56000000    34.06000000
   H     84.97000000    34.49000000    32.90000000
   N     81.54000000    37.32000000    33.71000000
   C     82.06000000    38.49000000    34.41000000
   C     83.41000000    39.05000000    33.99000000
   O     83.91000000    40.08000000    34.43000000
   H     81.23000000    37.42000000    32.75000000
   H     82.09000000    38.24000000    35.47000000
   H     81.24000000    39.18000000    34.22000000
   N     84.02000000    38.33000000    33.04000000
   C     85.38000000    38.52000000    32.58000000
   C     85.47000000    38.60000000    31.06000000
   O     84.70000000    37.92000000    30.40000000
   C     86.32000000    37.50000000    33.20000000
   C     86.25000000    37.64000000    34.71000000
   C     87.05000000    38.55000000    35.41000000
   C     85.40000000    36.75000000    35.36000000
   C     87.05000000    38.47000000    36.81000000
   C     85.37000000    36.74000000    36.76000000
   C     86.23000000    37.56000000    37.52000000
   O     86.45000000    37.35000000    38.85000000
   H     83.58000000    37.46000000    32.77000000
   H     85.60000000    39.56000000    32.82000000
   H     87.38000000    37.54000000    32.94000000
   H     85.93000000    36.50000000    33.01000000
   H     87.61000000    39.31000000    34.89000000
   H     84.76000000    36.05000000    34.84000000
   H     87.72000000    39.12000000    37.35000000
   H     84.65000000    36.09000000    37.24000000
   H     85.98000000    36.61000000    39.25000000
   N     86.30000000    39.51000000    30.54000000
   C     86.54000000    39.66000000    29.12000000
   C     87.95000000    39.11000000    29.02000000
   O     88.93000000    39.45000000    29.68000000
   C     86.54000000    41.06000000    28.50000000
   C     85.27000000    41.86000000    28.78000000
   C     86.78000000    40.89000000    27.01000000
   C     85.40000000    43.37000000    28.63000000
   H     86.84000000    40.08000000    31.17000000
   H     85.89000000    39.01000000    28.52000000
   H     87.40000000    41.55000000    28.96000000
   H     84.87000000    41.78000000    29.79000000
   H     84.48000000    41.60000000    28.06000000
   H     86.74000000    41.89000000    26.57000000
   H     87.79000000    40.56000000    26.75000000
   H     86.09000000    40.17000000    26.57000000
   H     84.41000000    43.83000000    28.62000000
   H     86.02000000    43.67000000    29.48000000
   H     85.99000000    43.75000000    27.80000000
   N     88.13000000    38.27000000    27.99000000
   C     89.38000000    37.64000000    27.61000000
   C     89.66000000    38.10000000    26.18000000
   O     88.74000000    38.54000000    25.50000000
   C     89.22000000    36.13000000    27.68000000
   O     88.98000000    35.72000000    29.01000000
   H     87.33000000    38.02000000    27.43000000
   H     90.15000000    37.99000000    28.30000000
   H     90.08000000    35.65000000    27.21000000
   H     88.33000000    35.85000000    27.11000000
   H     89.37000000    34.86000000    29.15000000
   N     90.90000000    37.91000000    25.71000000
   C     91.41000000    38.38000000    24.43000000
   C     90.56000000    38.02000000    23.22000000
   O     90.27000000    38.89000000    22.41000000
   C     92.82000000    37.91000000    24.12000000
   H     91.56000000    37.37000000    26.24000000
   H     91.28000000    39.46000000    24.49000000
   H     93.57000000    38.38000000    24.76000000
   H     92.79000000    36.84000000    24.31000000
   H     92.98000000    38.22000000    23.08000000
   N     90.14000000    36.78000000    22.99000000
   C     89.41000000    36.40000000    21.79000000
   C     88.04000000    37.06000000    21.90000000
   O     87.43000000    37.36000000    20.87000000
   C     89.18000000    34.90000000    21.78000000
   H     90.19000000    36.02000000    23.65000000
   H     89.89000000    36.70000000    20.86000000
   H     88.84000000    34.66000000    20.78000000
   H     90.06000000    34.27000000    21.91000000
   H     88.42000000    34.70000000    22.54000000
   N     87.49000000    37.28000000    23.10000000
   C     86.25000000    38.00000000    23.31000000
   C     86.27000000    39.49000000    23.00000000
   O     85.35000000    40.02000000    22.38000000
   C     85.72000000    37.71000000    24.71000000
   C     85.78000000    36.26000000    25.17000000
   C     85.06000000    36.09000000    26.50000000
   O     84.43000000    36.95000000    27.14000000
   O     85.12000000    34.96000000    27.04000000
   H     88.07000000    37.16000000    23.92000000
   H     85.58000000    37.47000000    22.62000000
   H     84.70000000    38.09000000    24.65000000
   H     86.25000000    38.31000000    25.45000000
   H     86.85000000    36.09000000    25.24000000
   H     85.42000000    35.66000000    24.33000000
   N     87.37000000    40.16000000    23.36000000
   C     87.66000000    41.54000000    23.03000000
   H     88.63500000    41.60000000    22.54600000
   H     86.89500000    41.92100000    22.35400000
   H     87.67000000    42.13800000    23.94100000
   H     88.02000000    39.59000000    23.89000000
  Ca     83.54000000    35.77000000    29.09000000
   O     86.23000000    35.54000000    29.87000000
   H     86.50000000    35.46000000    30.79000000
   H     87.06000000    35.61000000    29.39000000

Ca 1.70



