%chk=CaMKII_loop3_61.0.chk
%nprocshared=48
%mem=10GB
%nosave
#b3lyp/svp scf=(tight,noincore) Test 
#IOP(5/87=12) Density=Current Pop=(MK,readradii) iop(6/33=2) iop(6/42=6)

CaMKII_loop3_61.0 

   0   1
   C     68.48000000    46.82000000    31.43000000
   C     68.04000000    45.45000000    31.92000000
   O     68.42000000    44.43000000    31.34000000
   H     69.46700000    46.74200000    30.97400000
   H     67.76700000    47.18900000    30.69200000
   H     68.52300000    47.51100000    32.27200000
   N     67.19000000    45.42000000    32.95000000
   C     66.57000000    44.21000000    33.45000000
   C     65.55000000    43.70000000    32.44000000
   O     64.49000000    44.30000000    32.31000000
   C     65.98000000    44.49000000    34.83000000
   C     65.39000000    43.24000000    35.46000000
   O     64.80000000    43.39000000    36.55000000
   O     65.37000000    42.11000000    34.93000000
   H     67.01000000    46.36000000    33.29000000
   H     67.37000000    43.47000000    33.53000000
   H     65.13000000    45.13000000    34.64000000
   H     66.77000000    44.92000000    35.45000000
   N     65.84000000    42.57000000    31.78000000
   C     65.13000000    42.20000000    30.58000000
   C     63.74000000    41.61000000    30.83000000
   O     63.08000000    41.32000000    29.84000000
   C     66.04000000    41.25000000    29.81000000
   C     65.78000000    41.06000000    28.32000000
   C     66.83000000    40.09000000    27.79000000
   C     66.42000000    39.67000000    26.38000000
   N     67.56000000    39.19000000    25.59000000
   H     66.71000000    42.09000000    31.97000000
   H     65.01000000    43.12000000    29.99000000
   H     66.12000000    40.26000000    30.27000000
   H     67.07000000    41.59000000    29.90000000
   H     65.88000000    42.01000000    27.80000000
   H     64.77000000    40.67000000    28.18000000
   H     66.93000000    39.18000000    28.39000000
   H     67.75000000    40.66000000    27.63000000
   H     65.81000000    40.42000000    25.88000000
   H     65.72000000    38.85000000    26.54000000
   H     67.88000000    39.84000000    24.89000000
   H     68.35000000    38.97000000    26.18000000
   H     67.36000000    38.36000000    25.05000000
   N     63.34000000    41.41000000    32.08000000
   C     62.24000000    40.56000000    32.49000000
   C     61.48000000    41.00000000    33.74000000
   O     60.28000000    40.80000000    33.88000000
   C     62.76000000    39.14000000    32.65000000
   C     63.95000000    38.99000000    33.59000000
   O     65.10000000    38.93000000    33.12000000
   O     63.81000000    39.15000000    34.83000000
   H     63.92000000    41.95000000    32.71000000
   H     61.51000000    40.58000000    31.68000000
   H     63.13000000    38.94000000    31.64000000
   H     61.99000000    38.40000000    32.87000000
   N     62.14000000    41.85000000    34.53000000
   C     61.51000000    42.45000000    35.69000000
   C     61.79000000    41.88000000    37.07000000
   O     61.04000000    42.19000000    37.99000000
   H     63.12000000    42.05000000    34.36000000
   H     60.43000000    42.52000000    35.59000000
   H     61.79000000    43.50000000    35.66000000
   N     62.76000000    40.98000000    37.25000000
   C     63.06000000    40.23000000    38.45000000
   C     63.92000000    40.94000000    39.49000000
   O     64.27000000    40.40000000    40.53000000
   C     63.63000000    38.87000000    38.07000000
   C     65.06000000    38.67000000    37.58000000
   N     65.57000000    37.44000000    37.71000000
   O     65.78000000    39.57000000    37.16000000
   H     63.46000000    41.07000000    36.53000000
   H     62.11000000    39.89000000    38.87000000
   H     63.00000000    38.49000000    37.26000000
   H     63.44000000    38.22000000    38.92000000
   H     64.91000000    36.69000000    37.85000000
   H     66.43000000    37.20000000    37.24000000
   N     64.43000000    42.12000000    39.10000000
   C     65.29000000    43.01000000    39.85000000
   C     66.76000000    42.63000000    39.72000000
   O     67.56000000    43.01000000    40.57000000
   H     64.09000000    42.46000000    38.21000000
   H     65.13000000    43.06000000    40.92000000
   H     65.03000000    43.97000000    39.42000000
   N     67.18000000    41.92000000    38.67000000
   C     68.59000000    41.69000000    38.42000000
   C     68.91000000    41.90000000    36.94000000
   O     68.15000000    41.55000000    36.04000000
   C     69.10000000    40.35000000    38.93000000
   C     68.91000000    40.01000000    40.39000000
   C     69.68000000    40.63000000    41.39000000
   C     67.90000000    39.12000000    40.76000000
   C     69.50000000    40.30000000    42.74000000
   C     67.76000000    38.77000000    42.11000000
   C     68.54000000    39.34000000    43.13000000
   O     68.23000000    39.04000000    44.42000000
   H     66.56000000    41.67000000    37.92000000
   H     69.04000000    42.56000000    38.89000000
   H     70.16000000    40.23000000    38.71000000
   H     68.63000000    39.62000000    38.28000000
   H     70.33000000    41.41000000    41.02000000
   H     67.24000000    38.62000000    40.07000000
   H     69.97000000    40.82000000    43.56000000
   H     67.01000000    38.04000000    42.40000000
   H     67.43000000    38.51000000    44.44000000
   N     70.10000000    42.41000000    36.62000000
   C     70.75000000    42.48000000    35.33000000
   C     71.94000000    41.53000000    35.36000000
   O     72.80000000    41.54000000    36.24000000
   C     71.25000000    43.90000000    35.07000000
   C     70.18000000    44.98000000    35.04000000
   C     72.05000000    43.85000000    33.78000000
   C     70.79000000    46.36000000    35.27000000
   H     70.65000000    42.77000000    37.39000000
   H     70.07000000    42.20000000    34.52000000
   H     71.94000000    44.07000000    35.90000000
   H     69.47000000    44.85000000    35.85000000
   H     69.76000000    44.97000000    34.03000000
   H     72.57000000    44.77000000    33.52000000
   H     72.88000000    43.15000000    33.88000000
   H     71.41000000    43.55000000    32.95000000
   H     71.59000000    46.68000000    34.60000000
   H     69.95000000    47.06000000    35.29000000
   H     71.27000000    46.39000000    36.24000000
   N     72.06000000    40.70000000    34.32000000
   C     73.19000000    39.82000000    34.10000000
   C     73.85000000    40.28000000    32.81000000
   O     73.39000000    41.17000000    32.08000000
   C     72.79000000    38.35000000    34.11000000
   O     71.93000000    38.05000000    33.04000000
   H     71.42000000    40.81000000    33.55000000
   H     74.01000000    40.06000000    34.78000000
   H     72.37000000    37.91000000    35.01000000
   H     73.64000000    37.72000000    33.85000000
   H     71.23000000    37.54000000    33.44000000
   N     75.07000000    39.80000000    32.53000000
   C     76.01000000    40.13000000    31.48000000
   C     75.35000000    40.10000000    30.11000000
   O     75.50000000    41.03000000    29.33000000
   C     77.28000000    39.29000000    31.56000000
   H     75.50000000    39.14000000    33.16000000
   H     76.35000000    41.14000000    31.72000000
   H     77.22000000    38.30000000    31.09000000
   H     77.98000000    39.81000000    30.91000000
   H     77.78000000    39.23000000    32.52000000
   N     74.75000000    38.98000000    29.69000000
   C     73.88000000    38.89000000    28.53000000
   C     72.68000000    39.83000000    28.47000000
   O     72.30000000    40.25000000    27.38000000
   C     73.42000000    37.44000000    28.49000000
   H     74.85000000    38.17000000    30.27000000
   H     74.44000000    39.08000000    27.62000000
   H     72.79000000    37.27000000    29.36000000
   H     72.90000000    37.22000000    27.55000000
   H     74.28000000    36.78000000    28.48000000
   N     72.19000000    40.35000000    29.60000000
   C     70.99000000    41.17000000    29.67000000
   C     71.45000000    42.61000000    29.47000000
   O     70.69000000    43.42000000    28.95000000
   C     70.22000000    41.02000000    30.97000000
   C     69.46000000    39.70000000    31.10000000
   C     68.68000000    39.70000000    32.41000000
   O     68.15000000    40.74000000    32.84000000
   O     68.70000000    38.67000000    33.12000000
   H     72.55000000    40.19000000    30.53000000
   H     70.33000000    40.90000000    28.84000000
   H     69.50000000    41.80000000    30.75000000
   H     70.85000000    41.10000000    31.86000000
   H     70.10000000    38.82000000    31.02000000
   H     68.69000000    39.55000000    30.35000000
   N     72.64000000    42.93000000    29.99000000
   C     73.35000000    44.17000000    29.79000000
   H     74.31200000    43.96500000    29.32100000
   H     72.76400000    44.82500000    29.14500000
   H     73.51100000    44.65600000    30.75200000
   H     73.04000000    42.30000000    30.66000000
  Ca     66.72000000    39.96000000    34.75000000
   O     69.09000000    39.01000000    35.82000000
   H     69.87000000    38.72000000    36.29000000
   H     69.29000000    38.84000000    34.89000000

Ca 1.70



