%Nproc=28
%chk=holo2.0.chk
%mem=80GB
%NoSave
#MP2(semidirect)/Gen scf=(tight,noincore) Test
#IOP(5/87=12) Density=Current Pop=(MK,readradii) iop(6/33=2) iop(6/42=6)

holo_loop_3_model_2.0 

   0   1
   C     38.23600000    56.69900000    45.55900000
   C     38.83800000    55.36100000    45.97900000
   C     39.68500000    55.48500000    47.23700000
   O     39.42200000    56.26500000    48.15000000
   O     40.71100000    54.58700000    47.27100000
   H     37.82500000    56.58300000    44.55600000
   H     39.01700000    57.45900000    45.57800000
   H     37.42700000    57.00800000    46.22100000
   H     39.31200000    54.93000000    45.09700000
   H     37.98200000    54.74200000    46.24500000
   H     40.70800000    54.27700000    46.36200000
   C     40.78300000    60.23200000    48.85200000
   C     39.81600000    60.35700000    50.02600000
   C     38.87700000    59.16000000    49.97400000
   O     39.23200000    58.11900000    50.56900000
   O     37.82600000    59.21900000    49.30100000
   H     40.24300000    60.02300000    47.92900000
   H     41.48000000    59.41300000    49.02800000
   H     41.32500000    61.17400000    48.77600000
   H     39.24400000    61.28300000    50.08200000
   H     40.34400000    60.38600000    50.97900000
   C     31.16100000    58.44100000    47.05500000
   C     32.35000000    57.48900000    47.15100000
   C     33.19400000    57.68100000    48.40800000
   C     34.37900000    56.77500000    48.71100000
   O     34.49300000    56.22600000    49.82800000
   O     35.30700000    56.73800000    47.87400000
   H     30.55300000    58.37100000    47.95700000
   H     30.54500000    58.17600000    46.19500000
   H     31.54000000    59.45600000    46.93800000
   H     32.88600000    57.63900000    46.21400000
   H     31.98200000    56.46600000    47.07000000
   H     32.58200000    57.61500000    49.30700000
   H     33.64500000    58.67100000    48.34500000
  Ca     37.34200000    56.37500000    49.98600000
   O     35.97800000    54.88800000    51.89300000
   H     35.22800000    55.27500000    51.44100000
   H     35.59000000    54.34700000    52.58100000

C O H 0
aug-cc-pVTZ 
****
@/home/pzhang5/ca_ccpvtz_basisset.gbs/N

Ca 1.70




