%chk=holoCaM_loop3_67.0.chk
%nprocshared=48
%mem=10GB
%nosave
#b3lyp/svp scf=(tight,noincore) Test 
#IOP(5/87=12) Density=Current Pop=(MK,readradii) iop(6/33=2) iop(6/42=6)

holoCaM_loop3_67.0 

   0   1
   C     44.35000000    48.19000000    28.28000000
   C     45.44000000    47.16000000    28.55000000
   O     46.06000000    47.19000000    29.62000000
   H     43.47800000    47.96500000    28.89400000
   H     44.72100000    49.18500000    28.52600000
   H     44.07000000    48.15600000    27.22700000
   N     45.72000000    46.24000000    27.63000000
   C     46.75000000    45.23000000    27.69000000
   C     48.13000000    45.71000000    27.26000000
   O     48.74000000    45.06000000    26.41000000
   C     46.23000000    44.00000000    26.94000000
   C     46.95000000    42.69000000    27.25000000
   O     47.49000000    42.46000000    28.35000000
   O     46.99000000    41.82000000    26.35000000
   H     45.14000000    46.15000000    26.80000000
   H     46.80000000    44.94000000    28.74000000
   H     46.15000000    44.19000000    25.87000000
   H     45.21000000    43.81000000    27.28000000
   N     48.58000000    46.79000000    27.89000000
   C     49.80000000    47.51000000    27.58000000
   C     51.01000000    46.64000000    27.90000000
   O     52.12000000    46.77000000    27.39000000
   C     49.94000000    48.86000000    28.28000000
   C     48.80000000    49.86000000    28.11000000
   C     48.99000000    51.12000000    28.95000000
   C     48.59000000    51.06000000    30.42000000
   N     47.25000000    51.62000000    30.68000000
   H     47.91000000    47.14000000    28.55000000
   H     49.86000000    47.59000000    26.49000000
   H     50.85000000    49.35000000    27.96000000
   H     50.04000000    48.71000000    29.36000000
   H     47.78000000    49.51000000    28.32000000
   H     48.72000000    50.17000000    27.07000000
   H     48.54000000    51.94000000    28.40000000
   H     50.05000000    51.39000000    28.91000000
   H     49.36000000    51.58000000    30.99000000
   H     48.66000000    50.02000000    30.75000000
   H     47.22000000    52.08000000    31.57000000
   H     47.00000000    52.32000000    29.99000000
   H     46.55000000    50.89000000    30.77000000
   N     50.81000000    45.62000000    28.74000000
   C     51.77000000    44.62000000    29.15000000
   C     51.69000000    43.36000000    28.30000000
   O     52.60000000    42.54000000    28.43000000
   C     51.48000000    44.24000000    30.60000000
   C     50.07000000    43.67000000    30.63000000
   O     49.05000000    44.35000000    30.35000000
   O     49.92000000    42.47000000    30.95000000
   H     49.90000000    45.62000000    29.19000000
   H     52.79000000    45.00000000    29.13000000
   H     51.54000000    45.13000000    31.23000000
   H     52.14000000    43.42000000    30.89000000
   N     50.65000000    43.11000000    27.50000000
   C     50.57000000    42.13000000    26.44000000
   C     50.50000000    40.69000000    26.92000000
   O     51.27000000    39.82000000    26.51000000
   H     49.90000000    43.79000000    27.52000000
   H     51.46000000    42.18000000    25.82000000
   H     49.71000000    42.37000000    25.81000000
   N     49.56000000    40.39000000    27.83000000
   C     49.31000000    39.02000000    28.23000000
   C     47.99000000    38.36000000    27.84000000
   O     47.65000000    37.25000000    28.24000000
   C     49.56000000    38.87000000    29.73000000
   C     48.47000000    39.35000000    30.68000000
   N     48.30000000    38.83000000    31.90000000
   O     47.61000000    40.13000000    30.28000000
   H     48.90000000    41.09000000    28.12000000
   H     50.09000000    38.43000000    27.76000000
   H     50.45000000    39.39000000    30.07000000
   H     49.62000000    37.80000000    29.91000000
   H     48.94000000    38.12000000    32.21000000
   H     47.50000000    39.08000000    32.47000000
   N     47.18000000    39.08000000    27.07000000
   C     45.93000000    38.54000000    26.59000000
   C     44.78000000    38.62000000    27.59000000
   O     43.69000000    38.10000000    27.38000000
   H     47.26000000    40.07000000    26.87000000
   H     45.96000000    37.48000000    26.36000000
   H     45.68000000    39.21000000    25.77000000
   N     44.90000000    39.44000000    28.64000000
   C     43.94000000    39.62000000    29.70000000
   C     43.81000000    41.07000000    30.13000000
   O     44.81000000    41.77000000    30.05000000
   C     44.26000000    38.82000000    30.96000000
   C     44.30000000    37.31000000    30.88000000
   C     45.50000000    36.63000000    31.09000000
   C     43.09000000    36.62000000    30.71000000
   C     45.49000000    35.24000000    31.18000000
   C     43.03000000    35.23000000    30.87000000
   C     44.25000000    34.56000000    31.09000000
   O     44.12000000    33.21000000    31.20000000
   H     45.83000000    39.83000000    28.70000000
   H     42.93000000    39.28000000    29.48000000
   H     43.45000000    38.95000000    31.67000000
   H     45.26000000    39.14000000    31.26000000
   H     46.50000000    37.06000000    31.07000000
   H     42.15000000    37.15000000    30.66000000
   H     46.39000000    34.69000000    31.41000000
   H     42.07000000    34.74000000    30.83000000
   H     43.17000000    33.09000000    31.30000000
   N     42.66000000    41.44000000    30.69000000
   C     42.25000000    42.64000000    31.40000000
   C     41.69000000    42.39000000    32.79000000
   O     40.84000000    41.53000000    32.97000000
   C     41.34000000    43.56000000    30.59000000
   C     42.12000000    44.22000000    29.46000000
   C     40.61000000    44.58000000    31.45000000
   C     41.15000000    44.87000000    28.47000000
   H     41.95000000    40.72000000    30.62000000
   H     43.10000000    43.30000000    31.61000000
   H     40.61000000    42.89000000    30.13000000
   H     42.57000000    43.42000000    28.87000000
   H     42.75000000    45.05000000    29.80000000
   H     39.97000000    43.98000000    32.10000000
   H     41.23000000    45.36000000    31.89000000
   H     39.95000000    45.14000000    30.79000000
   H     40.80000000    45.85000000    28.79000000
   H     41.63000000    45.22000000    27.56000000
   H     40.22000000    44.35000000    28.25000000
   N     42.13000000    43.12000000    33.82000000
   C     41.68000000    43.06000000    35.19000000
   C     41.22000000    44.43000000    35.67000000
   O     41.35000000    45.42000000    34.96000000
   C     42.81000000    42.44000000    36.01000000
   O     43.92000000    43.31000000    36.09000000
   H     42.94000000    43.68000000    33.60000000
   H     40.82000000    42.40000000    35.34000000
   H     43.08000000    41.48000000    35.58000000
   H     42.46000000    42.25000000    37.03000000
   H     44.19000000    43.53000000    35.20000000
   N     40.60000000    44.34000000    36.85000000
   C     40.01000000    45.47000000    37.53000000
   C     40.80000000    46.77000000    37.62000000
   O     40.37000000    47.85000000    37.22000000
   C     39.58000000    45.03000000    38.93000000
   H     40.46000000    43.42000000    37.27000000
   H     39.14000000    45.70000000    36.91000000
   H     39.08000000    45.88000000    39.38000000
   H     38.94000000    44.15000000    38.94000000
   H     40.50000000    44.89000000    39.51000000
   N     42.01000000    46.76000000    38.18000000
   C     42.87000000    47.93000000    38.20000000
   C     43.44000000    48.33000000    36.85000000
   O     43.83000000    49.49000000    36.72000000
   C     43.96000000    47.66000000    39.24000000
   H     42.56000000    45.95000000    38.43000000
   H     42.19000000    48.67000000    38.62000000
   H     44.71000000    48.44000000    39.36000000
   H     43.39000000    47.57000000    40.17000000
   H     44.56000000    46.77000000    39.09000000
   N     43.50000000    47.52000000    35.80000000
   C     43.87000000    47.90000000    34.45000000
   C     42.68000000    48.52000000    33.74000000
   O     42.88000000    49.60000000    33.17000000
   C     44.26000000    46.66000000    33.65000000
   C     45.56000000    45.96000000    34.04000000
   C     45.61000000    44.58000000    33.40000000
   O     44.91000000    43.65000000    33.86000000
   O     46.23000000    44.50000000    32.32000000
   H     43.13000000    46.58000000    35.82000000
   H     44.68000000    48.62000000    34.40000000
   H     44.35000000    46.90000000    32.59000000
   H     43.46000000    45.92000000    33.76000000
   H     45.58000000    45.77000000    35.12000000
   H     46.47000000    46.48000000    33.73000000
   N     41.45000000    48.07000000    34.02000000
   C     40.32000000    48.85000000    33.57000000
   H     39.50000000    48.74300000    34.28000000
   H     40.60600000    49.89900000    33.50200000
   H     40.00000000    48.49500000    32.59000000
   H     41.33000000    47.13000000    34.38000000
  Ca     47.31000000    42.58000000    30.94000000
   O     45.77000000    41.39000000    32.72000000
   H     45.28000000    42.00000000    33.26000000
   H     45.81000000    40.59000000    33.24000000

Ca 1.70



