%chk=holoCaM_loop3_76.0.chk
%nprocshared=48
%mem=10GB
%nosave
#b3lyp/svp scf=(tight,noincore) Test 
#IOP(5/87=12) Density=Current Pop=(MK,readradii) iop(6/33=2) iop(6/42=6)

holoCaM_loop3_76.0 

   0   1
   C     54.79000000    47.05000000    34.33000000
   C     54.71000000    45.67000000    34.97000000
   O     53.80000000    45.49000000    35.77000000
   H     55.82700000    47.27600000    34.08400000
   H     54.19000000    47.06500000    33.42000000
   H     54.41200000    47.79700000    35.02800000
   N     55.70000000    44.81000000    34.69000000
   C     55.91000000    43.55000000    35.36000000
   C     56.58000000    43.68000000    36.72000000
   O     57.43000000    44.55000000    36.92000000
   C     56.59000000    42.46000000    34.55000000
   C     56.36000000    41.05000000    35.07000000
   O     55.46000000    40.31000000    34.61000000
   O     57.12000000    40.56000000    35.94000000
   H     56.45000000    45.13000000    34.10000000
   H     54.89000000    43.24000000    35.58000000
   H     57.65000000    42.71000000    34.57000000
   H     56.32000000    42.62000000    33.50000000
   N     56.35000000    42.73000000    37.63000000
   C     56.66000000    42.79000000    39.05000000
   C     57.29000000    41.53000000    39.63000000
   O     57.58000000    41.54000000    40.82000000
   C     55.41000000    43.20000000    39.82000000
   C     54.89000000    44.61000000    39.54000000
   C     55.85000000    45.79000000    39.74000000
   C     55.13000000    47.10000000    39.42000000
   N     56.07000000    48.20000000    39.69000000
   H     55.71000000    42.00000000    37.36000000
   H     57.40000000    43.56000000    39.24000000
   H     55.80000000    43.22000000    40.84000000
   H     54.63000000    42.46000000    39.66000000
   H     54.05000000    44.70000000    40.23000000
   H     54.53000000    44.60000000    38.52000000
   H     56.62000000    45.79000000    38.96000000
   H     56.21000000    45.81000000    40.77000000
   H     54.27000000    47.16000000    40.09000000
   H     54.76000000    47.05000000    38.40000000
   H     55.69000000    49.12000000    39.87000000
   H     56.42000000    48.00000000    40.62000000
   H     56.85000000    48.28000000    39.05000000
   N     57.48000000    40.48000000    38.82000000
   C     58.11000000    39.31000000    39.39000000
   C     58.97000000    38.53000000    38.41000000
   O     59.70000000    37.62000000    38.81000000
   C     56.99000000    38.40000000    39.90000000
   C     55.90000000    37.88000000    38.97000000
   O     55.90000000    38.21000000    37.76000000
   O     55.04000000    37.16000000    39.51000000
   H     56.95000000    40.39000000    37.97000000
   H     58.80000000    39.55000000    40.20000000
   H     56.61000000    38.92000000    40.78000000
   H     57.49000000    37.53000000    40.33000000
   N     58.85000000    38.82000000    37.11000000
   C     59.58000000    38.23000000    36.01000000
   C     59.09000000    36.93000000    35.38000000
   O     59.90000000    36.40000000    34.62000000
   H     58.21000000    39.55000000    36.82000000
   H     60.60000000    38.05000000    36.32000000
   H     59.55000000    38.99000000    35.23000000
   N     57.93000000    36.41000000    35.78000000
   C     57.36000000    35.12000000    35.42000000
   C     57.05000000    34.76000000    33.98000000
   O     56.72000000    33.62000000    33.67000000
   C     56.20000000    34.79000000    36.36000000
   C     54.88000000    35.40000000    35.91000000
   N     53.79000000    34.84000000    36.44000000
   O     54.74000000    36.33000000    35.12000000
   H     57.50000000    36.89000000    36.55000000
   H     58.19000000    34.47000000    35.71000000
   H     56.35000000    35.16000000    37.37000000
   H     56.06000000    33.71000000    36.41000000
   H     53.87000000    34.04000000    37.04000000
   H     52.86000000    35.03000000    36.09000000
   N     57.31000000    35.66000000    33.02000000
   C     56.88000000    35.58000000    31.64000000
   C     55.54000000    36.23000000    31.32000000
   O     55.40000000    36.51000000    30.13000000
   H     57.79000000    36.50000000    33.31000000
   H     56.72000000    34.53000000    31.40000000
   H     57.75000000    35.90000000    31.05000000
   N     54.61000000    36.43000000    32.26000000
   C     53.23000000    36.78000000    32.01000000
   C     52.80000000    38.11000000    32.61000000
   O     53.64000000    38.57000000    33.40000000
   C     52.39000000    35.56000000    32.37000000
   C     52.89000000    34.21000000    31.92000000
   C     53.52000000    33.36000000    32.84000000
   C     52.58000000    33.80000000    30.62000000
   C     53.92000000    32.08000000    32.42000000
   C     52.96000000    32.52000000    30.20000000
   C     53.60000000    31.65000000    31.12000000
   O     53.97000000    30.38000000    30.82000000
   H     54.84000000    36.13000000    33.20000000
   H     53.12000000    36.84000000    30.93000000
   H     51.43000000    35.74000000    31.89000000
   H     52.36000000    35.51000000    33.46000000
   H     53.79000000    33.64000000    33.85000000
   H     52.14000000    34.58000000    30.01000000
   H     54.51000000    31.49000000    33.10000000
   H     52.71000000    32.14000000    29.22000000
   H     53.51000000    30.00000000    30.07000000
   N     51.63000000    38.67000000    32.32000000
   C     51.13000000    39.83000000    33.02000000
   C     49.91000000    39.39000000    33.81000000
   O     49.08000000    38.60000000    33.35000000
   C     51.06000000    40.97000000    32.01000000
   C     52.41000000    41.63000000    31.71000000
   C     50.09000000    42.06000000    32.44000000
   C     53.02000000    42.43000000    32.85000000
   H     50.99000000    38.21000000    31.68000000
   H     51.84000000    40.19000000    33.77000000
   H     50.71000000    40.50000000    31.09000000
   H     52.22000000    42.24000000    30.83000000
   H     53.21000000    40.94000000    31.47000000
   H     50.11000000    42.94000000    31.81000000
   H     49.08000000    41.65000000    32.52000000
   H     50.37000000    42.47000000    33.41000000
   H     53.99000000    42.87000000    32.61000000
   H     52.36000000    43.24000000    33.16000000
   H     53.14000000    41.74000000    33.69000000
   N     49.80000000    39.91000000    35.04000000
   C     48.77000000    39.59000000    36.01000000
   C     47.80000000    40.75000000    36.16000000
   O     48.12000000    41.89000000    35.80000000
   C     49.33000000    39.20000000    37.37000000
   O     50.02000000    37.98000000    37.44000000
   H     50.62000000    40.29000000    35.48000000
   H     48.21000000    38.71000000    35.67000000
   H     48.44000000    39.10000000    37.99000000
   H     50.00000000    40.01000000    37.67000000
   H     49.54000000    37.31000000    37.95000000
   N     46.66000000    40.67000000    36.85000000
   C     45.64000000    41.68000000    37.06000000
   C     46.29000000    42.88000000    37.74000000
   O     46.09000000    44.00000000    37.28000000
   C     44.46000000    41.13000000    37.87000000
   H     46.40000000    39.76000000    37.18000000
   H     45.21000000    41.94000000    36.09000000
   H     43.69000000    41.87000000    38.10000000
   H     44.01000000    40.30000000    37.34000000
   H     44.93000000    40.82000000    38.80000000
   N     47.10000000    42.67000000    38.78000000
   C     47.75000000    43.81000000    39.39000000
   C     48.77000000    44.64000000    38.62000000
   O     48.93000000    45.83000000    38.88000000
   C     48.25000000    43.40000000    40.77000000
   H     47.16000000    41.75000000    39.18000000
   H     46.91000000    44.44000000    39.67000000
   H     49.21000000    42.89000000    40.73000000
   H     48.38000000    44.25000000    41.45000000
   H     47.50000000    42.75000000    41.23000000
   N     49.39000000    44.01000000    37.62000000
   C     50.37000000    44.50000000    36.67000000
   C     49.62000000    45.15000000    35.52000000
   O     50.02000000    46.21000000    35.03000000
   C     51.24000000    43.32000000    36.25000000
   C     51.96000000    42.63000000    37.40000000
   C     52.83000000    41.47000000    36.94000000
   O     53.96000000    41.27000000    37.44000000
   O     52.34000000    40.52000000    36.28000000
   H     49.10000000    43.06000000    37.46000000
   H     51.08000000    45.19000000    37.13000000
   H     51.92000000    43.79000000    35.53000000
   H     50.55000000    42.57000000    35.86000000
   H     51.20000000    42.25000000    38.09000000
   H     52.55000000    43.37000000    37.94000000
   N     48.51000000    44.55000000    35.08000000
   C     47.62000000    45.27000000    34.20000000
   H     46.73100000    45.57400000    34.75300000
   H     48.12700000    46.15400000    33.81400000
   H     47.32900000    44.62600000    33.37000000
   H     48.24000000    43.66000000    35.48000000
  Ca     54.06000000    38.75000000    35.95000000
   O     51.93000000    37.29000000    35.60000000
   H     51.08000000    37.21000000    35.16000000
   H     51.73000000    37.28000000    36.53000000

Ca 1.70



