%chk=holoCaM_loop3_63.0.chk
%nprocshared=48
%mem=10GB
%nosave
#b3lyp/svp scf=(tight,noincore) Test 
#IOP(5/87=12) Density=Current Pop=(MK,readradii) iop(6/33=2) iop(6/42=6)

holoCaM_loop3_63.0 

   0   1
   C     67.31000000    50.12000000     0.29000000
   C     67.90000000    50.29000000     1.69000000
   O     68.42000000    49.32000000     2.24000000
   H     66.42100000    50.74300000     0.19300000
   H     68.04700000    50.42100000    -0.45500000
   H     67.04000000    49.07600000     0.13300000
   N     67.70000000    51.48000000     2.25000000
   C     67.89000000    51.91000000     3.62000000
   C     66.86000000    51.29000000     4.56000000
   O     65.65000000    51.44000000     4.42000000
   C     67.92000000    53.43000000     3.69000000
   C     67.93000000    54.07000000     5.07000000
   O     67.68000000    55.29000000     5.14000000
   O     68.23000000    53.37000000     6.06000000
   H     67.38000000    52.17000000     1.58000000
   H     68.87000000    51.59000000     3.99000000
   H     67.03000000    53.75000000     3.15000000
   H     68.77000000    53.76000000     3.09000000
   N     67.27000000    50.37000000     5.43000000
   C     66.33000000    49.43000000     6.01000000
   C     65.50000000    50.00000000     7.15000000
   O     64.42000000    49.48000000     7.42000000
   C     67.07000000    48.15000000     6.39000000
   C     67.76000000    47.39000000     5.26000000
   C     66.89000000    47.09000000     4.04000000
   C     67.70000000    46.40000000     2.95000000
   N     67.03000000    45.64000000     1.89000000
   H     68.27000000    50.25000000     5.57000000
   H     65.62000000    49.11000000     5.26000000
   H     66.44000000    47.44000000     6.92000000
   H     67.91000000    48.32000000     7.07000000
   H     68.17000000    46.46000000     5.67000000
   H     68.64000000    47.95000000     4.95000000
   H     66.50000000    48.01000000     3.62000000
   H     65.97000000    46.56000000     4.33000000
   H     68.32000000    45.67000000     3.47000000
   H     68.43000000    47.13000000     2.61000000
   H     66.41000000    46.22000000     1.35000000
   H     67.68000000    45.26000000     1.22000000
   H     66.51000000    44.87000000     2.30000000
   N     65.86000000    51.13000000     7.75000000
   C     65.12000000    51.80000000     8.80000000
   C     64.79000000    53.26000000     8.54000000
   O     63.95000000    53.82000000     9.23000000
   C     65.92000000    51.70000000    10.10000000
   C     67.37000000    52.15000000    10.09000000
   O     67.93000000    52.70000000    11.07000000
   O     68.09000000    51.91000000     9.09000000
   H     66.81000000    51.45000000     7.63000000
   H     64.18000000    51.29000000     9.03000000
   H     65.96000000    50.66000000    10.44000000
   H     65.46000000    52.19000000    10.96000000
   N     65.30000000    53.83000000     7.44000000
   C     64.92000000    55.17000000     7.02000000
   C     65.71000000    56.28000000     7.70000000
   O     65.15000000    57.28000000     8.14000000
   H     65.92000000    53.32000000     6.83000000
   H     63.83000000    55.21000000     7.07000000
   H     65.02000000    55.23000000     5.94000000
   N     67.04000000    56.20000000     7.79000000
   C     67.94000000    57.12000000     8.45000000
   C     68.86000000    57.94000000     7.56000000
   O     69.59000000    58.80000000     8.04000000
   C     68.61000000    56.38000000     9.60000000
   C     69.91000000    55.68000000     9.23000000
   N     71.04000000    56.05000000     9.83000000
   O     69.99000000    54.82000000     8.34000000
   H     67.47000000    55.35000000     7.47000000
   H     67.27000000    57.86000000     8.88000000
   H     67.94000000    55.65000000    10.04000000
   H     68.88000000    56.96000000    10.48000000
   H     70.85000000    56.59000000    10.66000000
   H     71.90000000    55.55000000     9.64000000
   N     68.73000000    57.79000000     6.24000000
   C     69.53000000    58.42000000     5.20000000
   C     70.74000000    57.59000000     4.79000000
   O     71.44000000    57.93000000     3.84000000
   H     68.16000000    57.03000000     5.90000000
   H     69.97000000    59.32000000     5.63000000
   H     68.98000000    58.69000000     4.30000000
   N     71.13000000    56.53000000     5.50000000
   C     72.36000000    55.78000000     5.33000000
   C     72.18000000    54.32000000     4.96000000
   O     71.37000000    53.68000000     5.64000000
   C     73.18000000    55.91000000     6.62000000
   C     73.65000000    57.34000000     6.76000000
   C     72.93000000    58.26000000     7.54000000
   C     74.78000000    57.81000000     6.08000000
   C     73.31000000    59.61000000     7.60000000
   C     75.15000000    59.16000000     6.10000000
   C     74.44000000    60.08000000     6.90000000
   O     74.67000000    61.42000000     6.90000000
   H     70.59000000    56.33000000     6.33000000
   H     73.01000000    56.22000000     4.57000000
   H     74.05000000    55.29000000     6.44000000
   H     72.67000000    55.46000000     7.47000000
   H     71.97000000    58.05000000     7.99000000
   H     75.27000000    57.10000000     5.43000000
   H     72.65000000    60.35000000     8.02000000
   H     76.04000000    59.44000000     5.55000000
   H     75.43000000    61.55000000     6.32000000
   N     73.02000000    53.82000000     4.04000000
   C     73.12000000    52.39000000     3.81000000
   C     74.46000000    51.95000000     4.37000000
   O     75.47000000    52.52000000     3.98000000
   C     72.90000000    52.13000000     2.32000000
   C     71.42000000    52.30000000     1.96000000
   C     73.41000000    50.73000000     1.97000000
   C     71.19000000    52.46000000     0.46000000
   H     73.76000000    54.44000000     3.75000000
   H     72.37000000    51.86000000     4.39000000
   H     73.52000000    52.81000000     1.74000000
   H     70.95000000    53.14000000     2.46000000
   H     70.82000000    51.45000000     2.30000000
   H     74.49000000    50.68000000     2.11000000
   H     72.91000000    49.90000000     2.47000000
   H     73.26000000    50.49000000     0.92000000
   H     71.25000000    51.48000000    -0.02000000
   H     70.23000000    52.91000000     0.22000000
   H     72.05000000    52.97000000     0.01000000
   N     74.51000000    51.07000000     5.38000000
   C     75.70000000    50.39000000     5.85000000
   C     76.15000000    49.23000000     4.97000000
   O     75.41000000    48.72000000     4.13000000
   C     75.51000000    49.92000000     7.29000000
   O     74.49000000    48.95000000     7.43000000
   H     73.64000000    50.75000000     5.78000000
   H     76.54000000    51.09000000     5.89000000
   H     75.21000000    50.81000000     7.84000000
   H     76.42000000    49.45000000     7.66000000
   H     74.67000000    48.71000000     8.34000000
   N     77.28000000    48.60000000     5.29000000
   C     77.70000000    47.28000000     4.85000000
   C     76.62000000    46.22000000     4.98000000
   O     76.38000000    45.56000000     3.97000000
   C     78.87000000    46.97000000     5.78000000
   H     77.89000000    49.05000000     5.96000000
   H     78.02000000    47.26000000     3.81000000
   H     79.20000000    45.96000000     5.51000000
   H     79.60000000    47.75000000     5.58000000
   H     78.62000000    46.93000000     6.84000000
   N     75.86000000    46.09000000     6.07000000
   C     74.81000000    45.11000000     6.25000000
   C     73.69000000    45.34000000     5.25000000
   O     73.07000000    44.34000000     4.87000000
   C     74.28000000    45.21000000     7.67000000
   H     76.17000000    46.65000000     6.85000000
   H     75.27000000    44.15000000     5.99000000
   H     73.58000000    46.04000000     7.68000000
   H     73.70000000    44.33000000     7.94000000
   H     75.12000000    45.35000000     8.34000000
   N     73.33000000    46.59000000     4.93000000
   C     72.28000000    47.07000000     4.06000000
   C     72.79000000    47.11000000     2.62000000
   O     71.94000000    46.93000000     1.75000000
   C     71.88000000    48.40000000     4.67000000
   C     71.26000000    48.33000000     6.07000000
   C     70.84000000    49.71000000     6.57000000
   O     71.25000000    50.12000000     7.68000000
   O     70.14000000    50.48000000     5.88000000
   H     73.90000000    47.31000000     5.35000000
   H     71.45000000    46.36000000     4.17000000
   H     71.06000000    48.79000000     4.06000000
   H     72.69000000    49.13000000     4.72000000
   H     72.01000000    47.96000000     6.76000000
   H     70.43000000    47.63000000     6.04000000
   N     74.08000000    47.19000000     2.29000000
   C     74.62000000    47.11000000     0.95000000
   H     75.64100000    46.73000000     0.99200000
   H     74.00700000    46.43700000     0.35000000
   H     74.62000000    48.10200000     0.49800000
   H     74.78000000    47.49000000     2.95000000
  Ca     70.22000000    52.44000000     7.66000000
   O     72.86000000    52.60000000     8.47000000
   H     72.89000000    52.21000000     9.35000000
   H     73.72000000    53.02000000     8.37000000

Ca 1.70



