%chk=holoCaM_loop3_73.0.chk
%nprocshared=48
%mem=10GB
%nosave
#b3lyp/svp scf=(tight,noincore) Test 
#IOP(5/87=12) Density=Current Pop=(MK,readradii) iop(6/33=2) iop(6/42=6)

holoCaM_loop3_73.0 

   0   1
   C     42.80000000    40.63000000    26.96000000
   C     43.67000000    39.59000000    27.64000000
   O     43.77000000    39.49000000    28.86000000
   H     41.89000000    40.77700000    27.54100000
   H     43.34400000    41.57200000    26.89300000
   H     42.54000000    40.28800000    25.95800000
   N     44.32000000    38.75000000    26.83000000
   C     45.14000000    37.64000000    27.27000000
   C     46.46000000    38.03000000    27.93000000
   O     47.45000000    38.27000000    27.24000000
   C     45.26000000    36.59000000    26.17000000
   C     45.87000000    35.28000000    26.63000000
   O     45.90000000    35.01000000    27.85000000
   O     46.22000000    34.47000000    25.75000000
   H     44.26000000    38.90000000    25.83000000
   H     44.65000000    37.14000000    28.12000000
   H     45.77000000    36.93000000    25.27000000
   H     44.22000000    36.38000000    25.90000000
   N     46.50000000    38.13000000    29.26000000
   C     47.68000000    38.48000000    30.01000000
   C     48.74000000    37.40000000    30.06000000
   O     49.87000000    37.76000000    29.72000000
   C     47.19000000    38.84000000    31.41000000
   C     46.23000000    40.03000000    31.44000000
   C     45.94000000    40.50000000    32.86000000
   C     44.76000000    41.44000000    33.08000000
   N     44.86000000    42.73000000    32.39000000
   H     45.67000000    37.87000000    29.78000000
   H     48.18000000    39.35000000    29.59000000
   H     48.13000000    39.03000000    31.93000000
   H     46.70000000    37.99000000    31.89000000
   H     45.32000000    39.77000000    30.90000000
   H     46.61000000    40.85000000    30.83000000
   H     46.82000000    41.01000000    33.25000000
   H     45.76000000    39.57000000    33.41000000
   H     44.60000000    41.62000000    34.14000000
   H     43.88000000    40.85000000    32.80000000
   H     45.76000000    43.20000000    32.44000000
   H     44.80000000    42.66000000    31.39000000
   H     44.15000000    43.40000000    32.64000000
   N     48.46000000    36.18000000    30.51000000
   C     49.51000000    35.18000000    30.60000000
   C     50.02000000    34.77000000    29.22000000
   O     51.10000000    34.20000000    29.13000000
   C     48.92000000    34.06000000    31.45000000
   C     47.52000000    33.63000000    31.03000000
   O     46.52000000    33.95000000    31.71000000
   O     47.34000000    33.14000000    29.90000000
   H     47.51000000    35.88000000    30.71000000
   H     50.24000000    35.68000000    31.23000000
   H     48.83000000    34.34000000    32.50000000
   H     49.58000000    33.19000000    31.40000000
   N     49.18000000    34.93000000    28.19000000
   C     49.54000000    34.41000000    26.89000000
   C     49.23000000    32.96000000    26.57000000
   O     49.79000000    32.38000000    25.64000000
   H     48.26000000    35.32000000    28.27000000
   H     50.59000000    34.62000000    26.66000000
   H     49.03000000    34.95000000    26.09000000
   N     48.35000000    32.34000000    27.36000000
   C     48.00000000    30.94000000    27.23000000
   C     47.11000000    30.62000000    26.04000000
   O     46.90000000    29.45000000    25.73000000
   C     47.38000000    30.41000000    28.52000000
   C     45.94000000    30.82000000    28.76000000
   N     45.36000000    30.14000000    29.75000000
   O     45.39000000    31.80000000    28.25000000
   H     48.07000000    32.81000000    28.22000000
   H     48.96000000    30.45000000    27.07000000
   H     47.92000000    30.60000000    29.45000000
   H     47.39000000    29.32000000    28.42000000
   H     45.84000000    29.49000000    30.37000000
   H     44.38000000    30.30000000    29.93000000
   N     46.51000000    31.57000000    25.32000000
   C     45.68000000    31.41000000    24.14000000
   C     44.19000000    31.26000000    24.42000000
   O     43.47000000    30.84000000    23.52000000
   H     46.66000000    32.55000000    25.53000000
   H     45.94000000    30.50000000    23.59000000
   H     45.82000000    32.30000000    23.54000000
   N     43.75000000    31.67000000    25.61000000
   C     42.38000000    31.66000000    26.10000000
   C     42.03000000    32.89000000    26.91000000
   O     42.82000000    33.29000000    27.77000000
   C     42.21000000    30.45000000    27.02000000
   C     42.45000000    29.04000000    26.52000000
   C     43.44000000    28.23000000    27.08000000
   C     41.79000000    28.68000000    25.34000000
   C     43.72000000    26.97000000    26.54000000
   C     42.01000000    27.38000000    24.85000000
   C     42.98000000    26.53000000    25.42000000
   O     43.40000000    25.44000000    24.72000000
   H     44.48000000    31.94000000    26.24000000
   H     41.74000000    31.56000000    25.22000000
   H     41.16000000    30.43000000    27.32000000
   H     42.81000000    30.59000000    27.92000000
   H     44.01000000    28.58000000    27.93000000
   H     41.09000000    29.35000000    24.87000000
   H     44.46000000    26.30000000    26.95000000
   H     41.60000000    27.11000000    23.89000000
   H     42.73000000    25.06000000    24.15000000
   N     40.81000000    33.42000000    26.79000000
   C     40.36000000    34.66000000    27.40000000
   C     39.25000000    34.24000000    28.35000000
   O     38.28000000    33.57000000    27.99000000
   C     39.97000000    35.68000000    26.33000000
   C     41.17000000    36.22000000    25.56000000
   C     39.27000000    36.84000000    27.04000000
   C     40.85000000    37.09000000    24.35000000
   H     40.14000000    32.92000000    26.23000000
   H     41.14000000    35.09000000    28.03000000
   H     39.34000000    35.24000000    25.56000000
   H     41.85000000    35.41000000    25.30000000
   H     41.72000000    36.85000000    26.26000000
   H     39.00000000    37.54000000    26.25000000
   H     38.35000000    36.41000000    27.42000000
   H     39.88000000    37.33000000    27.80000000
   H     40.15000000    37.91000000    24.55000000
   H     41.81000000    37.51000000    24.06000000
   H     40.40000000    36.48000000    23.57000000
   N     39.39000000    34.65000000    29.61000000
   C     38.42000000    34.50000000    30.68000000
   C     37.53000000    35.72000000    30.86000000
   O     37.88000000    36.79000000    30.36000000
   C     39.22000000    34.14000000    31.93000000
   O     39.80000000    35.35000000    32.38000000
   H     40.24000000    35.19000000    29.75000000
   H     37.81000000    33.64000000    30.43000000
   H     39.96000000    33.36000000    31.76000000
   H     38.63000000    33.77000000    32.76000000
   H     40.50000000    35.13000000    32.99000000
   N     36.48000000    35.58000000    31.67000000
   C     35.62000000    36.68000000    32.04000000
   C     36.34000000    37.73000000    32.88000000
   O     35.91000000    38.88000000    33.00000000
   C     34.40000000    36.11000000    32.76000000
   H     36.19000000    34.64000000    31.91000000
   H     35.39000000    37.19000000    31.11000000
   H     34.78000000    35.67000000    33.68000000
   H     33.77000000    36.97000000    33.01000000
   H     33.96000000    35.27000000    32.22000000
   N     37.46000000    37.38000000    33.51000000
   C     38.24000000    38.22000000    34.39000000
   C     39.11000000    39.13000000    33.53000000
   O     38.94000000    40.34000000    33.64000000
   C     39.08000000    37.41000000    35.37000000
   H     37.81000000    36.44000000    33.39000000
   H     37.66000000    38.89000000    35.04000000
   H     39.80000000    36.72000000    34.91000000
   H     39.66000000    38.07000000    36.02000000
   H     38.48000000    36.80000000    36.04000000
   N     39.81000000    38.53000000    32.57000000
   C     40.48000000    39.14000000    31.44000000
   C     39.56000000    39.97000000    30.55000000
   O     39.99000000    41.03000000    30.13000000
   C     41.13000000    38.13000000    30.50000000
   C     42.33000000    37.58000000    31.26000000
   C     43.09000000    36.52000000    30.48000000
   O     42.49000000    35.57000000    29.94000000
   O     44.34000000    36.58000000    30.48000000
   H     39.79000000    37.52000000    32.53000000
   H     41.20000000    39.81000000    31.91000000
   H     41.60000000    38.55000000    29.61000000
   H     40.44000000    37.30000000    30.34000000
   H     41.97000000    37.16000000    32.20000000
   H     42.99000000    38.40000000    31.56000000
   N     38.28000000    39.61000000    30.36000000
   C     37.30000000    40.44000000    29.69000000
   H     36.42500000    40.55700000    30.33000000
   H     37.73200000    41.41900000    29.48400000
   H     37.00400000    39.96900000    28.75300000
   H     38.03000000    38.68000000    30.65000000
  Ca     44.75000000    33.88000000    29.79000000
   O     43.79000000    33.83000000    32.38000000
   H     44.51000000    33.53000000    32.94000000
   H     43.24000000    34.36000000    32.95000000

Ca 1.70



