%chk=holoCaM_loop3_84.0.chk
%nprocshared=48
%mem=10GB
%nosave
#b3lyp/svp scf=(tight,noincore) Test 
#IOP(5/87=12) Density=Current Pop=(MK,readradii) iop(6/33=2) iop(6/42=6)

holoCaM_loop3_84.0 

   0   1
   C     73.08000000    35.74000000    29.17000000
   C     74.46000000    35.29000000    28.73000000
   O     75.08000000    34.36000000    29.24000000
   H     72.36100000    34.94300000    28.98000000
   H     73.09400000    35.96900000    30.23600000
   H     72.79200000    36.63000000    28.61100000
   N     75.12000000    36.10000000    27.90000000
   C     76.52000000    35.97000000    27.55000000
   C     77.44000000    36.37000000    28.69000000
   O     77.94000000    37.49000000    28.77000000
   C     76.79000000    36.72000000    26.25000000
   C     78.25000000    36.75000000    25.80000000
   O     79.11000000    35.91000000    26.14000000
   O     78.39000000    37.50000000    24.81000000
   H     74.68000000    36.96000000    27.59000000
   H     76.70000000    34.94000000    27.24000000
   H     76.55000000    37.77000000    26.42000000
   H     76.16000000    36.26000000    25.49000000
   N     77.77000000    35.42000000    29.57000000
   C     78.41000000    35.56000000    30.86000000
   C     79.84000000    36.07000000    30.84000000
   O     80.25000000    36.69000000    31.82000000
   C     78.40000000    34.26000000    31.65000000
   C     76.97000000    33.77000000    31.88000000
   C     75.89000000    34.67000000    32.48000000
   C     76.24000000    35.23000000    33.85000000
   N     75.11000000    36.03000000    34.33000000
   H     77.44000000    34.47000000    29.42000000
   H     77.85000000    36.35000000    31.36000000
   H     78.89000000    34.53000000    32.59000000
   H     78.94000000    33.42000000    31.23000000
   H     76.97000000    32.86000000    32.47000000
   H     76.55000000    33.35000000    30.96000000
   H     74.93000000    34.16000000    32.52000000
   H     75.67000000    35.47000000    31.77000000
   H     77.17000000    35.80000000    33.74000000
   H     76.39000000    34.33000000    34.45000000
   H     75.21000000    36.09000000    35.34000000
   H     75.15000000    36.94000000    33.89000000
   H     74.21000000    35.59000000    34.17000000
   N     80.65000000    35.76000000    29.82000000
   C     81.94000000    36.35000000    29.53000000
   C     81.93000000    37.48000000    28.52000000
   O     82.93000000    38.17000000    28.31000000
   C     82.99000000    35.28000000    29.24000000
   C     82.66000000    34.40000000    28.05000000
   O     81.91000000    34.83000000    27.14000000
   O     83.13000000    33.24000000    27.97000000
   H     80.24000000    35.21000000    29.08000000
   H     82.32000000    36.80000000    30.44000000
   H     82.87000000    34.72000000    30.17000000
   H     84.01000000    35.66000000    29.37000000
   N     80.76000000    37.84000000    27.98000000
   C     80.53000000    38.93000000    27.06000000
   C     81.43000000    38.95000000    25.83000000
   O     81.95000000    40.03000000    25.54000000
   H     80.00000000    37.21000000    28.17000000
   H     80.71000000    39.95000000    27.41000000
   H     79.48000000    38.81000000    26.78000000
   N     81.83000000    37.82000000    25.24000000
   C     82.68000000    37.71000000    24.07000000
   C     81.84000000    37.81000000    22.81000000
   O     82.38000000    37.93000000    21.71000000
   C     83.60000000    36.49000000    24.15000000
   C     82.83000000    35.20000000    23.95000000
   N     83.62000000    34.13000000    23.81000000
   O     81.62000000    34.98000000    24.07000000
   H     81.51000000    36.93000000    25.58000000
   H     83.30000000    38.60000000    24.11000000
   H     84.12000000    36.47000000    25.11000000
   H     84.43000000    36.51000000    23.44000000
   H     84.62000000    34.27000000    23.76000000
   H     83.21000000    33.24000000    23.57000000
   N     80.51000000    37.70000000    22.94000000
   C     79.60000000    37.99000000    21.85000000
   C     79.08000000    36.82000000    21.04000000
   O     78.57000000    36.93000000    19.93000000
   H     80.13000000    37.71000000    23.88000000
   H     79.94000000    38.77000000    21.16000000
   H     78.69000000    38.38000000    22.29000000
   N     79.25000000    35.60000000    21.56000000
   C     78.55000000    34.39000000    21.16000000
   C     78.15000000    33.52000000    22.34000000
   O     78.83000000    33.48000000    23.37000000
   C     79.28000000    33.56000000    20.11000000
   C     80.78000000    33.74000000    20.14000000
   C     81.57000000    32.92000000    20.95000000
   C     81.39000000    34.71000000    19.33000000
   C     82.96000000    33.07000000    20.99000000
   C     82.78000000    34.87000000    19.37000000
   C     83.58000000    34.05000000    20.19000000
   O     84.94000000    34.18000000    20.14000000
   H     79.73000000    35.47000000    22.44000000
   H     77.59000000    34.77000000    20.83000000
   H     78.93000000    33.92000000    19.14000000
   H     79.06000000    32.50000000    20.26000000
   H     81.10000000    32.24000000    21.64000000
   H     80.80000000    35.39000000    18.73000000
   H     83.61000000    32.39000000    21.52000000
   H     83.25000000    35.70000000    18.86000000
   H     85.22000000    34.91000000    19.58000000
   N     77.00000000    32.85000000    22.32000000
   C     76.51000000    32.08000000    23.45000000
   C     77.06000000    30.66000000    23.39000000
   O     77.32000000    30.10000000    22.33000000
   C     74.99000000    32.12000000    23.52000000
   C     74.58000000    33.47000000    24.11000000
   C     74.35000000    31.01000000    24.34000000
   C     74.92000000    33.76000000    25.57000000
   H     76.36000000    32.96000000    21.54000000
   H     76.93000000    32.54000000    24.34000000
   H     74.53000000    31.97000000    22.55000000
   H     73.51000000    33.63000000    24.01000000
   H     75.10000000    34.22000000    23.50000000
   H     74.43000000    30.05000000    23.82000000
   H     74.79000000    30.98000000    25.34000000
   H     73.29000000    31.16000000    24.54000000
   H     74.42000000    34.66000000    25.91000000
   H     74.45000000    32.97000000    26.15000000
   H     76.00000000    33.84000000    25.74000000
   N     77.32000000    30.07000000    24.55000000
   C     77.76000000    28.71000000    24.82000000
   C     76.88000000    27.89000000    25.75000000
   O     75.91000000    28.36000000    26.34000000
   C     79.17000000    28.95000000    25.36000000
   O     79.24000000    29.13000000    26.76000000
   H     77.31000000    30.61000000    25.41000000
   H     77.86000000    28.15000000    23.89000000
   H     79.66000000    29.79000000    24.88000000
   H     79.72000000    28.01000000    25.28000000
   H     80.16000000    29.35000000    26.96000000
   N     77.16000000    26.59000000    25.91000000
   C     76.26000000    25.66000000    26.56000000
   C     76.14000000    25.95000000    28.05000000
   O     75.05000000    25.92000000    28.60000000
   C     76.77000000    24.24000000    26.31000000
   H     77.98000000    26.23000000    25.44000000
   H     75.30000000    25.83000000    26.07000000
   H     76.71000000    24.05000000    25.24000000
   H     77.79000000    24.12000000    26.70000000
   H     76.12000000    23.54000000    26.83000000
   N     77.22000000    26.30000000    28.76000000
   C     77.11000000    26.79000000    30.11000000
   C     76.22000000    28.02000000    30.25000000
   O     75.45000000    28.12000000    31.21000000
   C     78.50000000    27.04000000    30.69000000
   H     78.11000000    26.33000000    28.28000000
   H     76.69000000    26.02000000    30.76000000
   H     79.01000000    27.89000000    30.23000000
   H     78.42000000    27.13000000    31.77000000
   H     79.12000000    26.16000000    30.48000000
   N     76.17000000    28.85000000    29.22000000
   C     75.31000000    30.01000000    29.16000000
   C     73.88000000    29.63000000    28.81000000
   O     72.97000000    30.28000000    29.31000000
   C     75.93000000    31.10000000    28.30000000
   C     77.38000000    31.45000000    28.62000000
   C     78.16000000    32.32000000    27.64000000
   O     79.09000000    33.01000000    28.12000000
   O     78.01000000    32.21000000    26.41000000
   H     76.69000000    28.69000000    28.36000000
   H     75.25000000    30.46000000    30.15000000
   H     75.33000000    32.00000000    28.42000000
   H     75.97000000    30.78000000    27.26000000
   H     77.93000000    30.51000000    28.68000000
   H     77.50000000    31.98000000    29.57000000
   N     73.60000000    28.64000000    27.95000000
   C     72.31000000    28.27000000    27.42000000
   H     71.61100000    29.09400000    27.55900000
   H     72.40300000    28.04900000    26.35700000
   H     71.94100000    27.38800000    27.94400000
   H     74.35000000    28.10000000    27.53000000
  Ca     80.09000000    33.55000000    25.77000000
   O     81.52000000    31.60000000    26.93000000
   H     82.11000000    32.04000000    27.55000000
   H     81.66000000    30.67000000    27.09000000

Ca 1.70



