%chk=holoCaM_loop3_102.0.chk
%nprocshared=48
%mem=10GB
%nosave
#b3lyp/svp scf=(tight,noincore) Test 
#IOP(5/87=12) Density=Current Pop=(MK,readradii) iop(6/33=2) iop(6/42=6)

holoCaM_loop3_102.0 

   0   1
   C     86.03000000    35.82000000    24.18000000
   C     87.28000000    35.86000000    23.32000000
   O     88.13000000    34.99000000    23.45000000
   H     85.19800000    35.43100000    23.59300000
   H     86.20100000    35.17300000    25.04000000
   H     85.79200000    36.82700000    24.52300000
   N     87.39000000    36.83000000    22.40000000
   C     88.66000000    37.11000000    21.77000000
   C     89.66000000    37.82000000    22.68000000
   O     89.36000000    38.81000000    23.33000000
   C     88.49000000    37.96000000    20.51000000
   C     89.64000000    37.95000000    19.51000000
   O     89.44000000    38.37000000    18.34000000
   O     90.78000000    37.62000000    19.88000000
   H     86.61000000    37.43000000    22.18000000
   H     89.05000000    36.16000000    21.42000000
   H     88.27000000    38.97000000    20.85000000
   H     87.56000000    37.79000000    19.98000000
   N     90.83000000    37.17000000    22.75000000
   C     91.80000000    37.57000000    23.74000000
   C     92.86000000    38.52000000    23.20000000
   O     93.76000000    38.94000000    23.91000000
   C     92.27000000    36.40000000    24.59000000
   C     91.22000000    35.60000000    25.35000000
   C     90.52000000    36.36000000    26.47000000
   C     89.64000000    35.34000000    27.19000000
   N     88.66000000    36.08000000    27.99000000
   H     91.01000000    36.40000000    22.11000000
   H     91.34000000    38.22000000    24.48000000
   H     93.02000000    36.77000000    25.29000000
   H     92.63000000    35.63000000    23.90000000
   H     91.74000000    34.72000000    25.74000000
   H     90.45000000    35.17000000    24.71000000
   H     89.93000000    37.20000000    26.10000000
   H     91.32000000    36.69000000    27.13000000
   H     90.33000000    34.64000000    27.68000000
   H     89.12000000    34.76000000    26.43000000
   H     89.13000000    36.55000000    28.75000000
   H     88.16000000    36.65000000    27.32000000
   H     87.88000000    35.56000000    28.36000000
   N     92.87000000    38.81000000    21.89000000
   C     93.83000000    39.67000000    21.24000000
   C     93.22000000    40.56000000    20.16000000
   O     93.99000000    41.35000000    19.61000000
   C     95.09000000    38.89000000    20.89000000
   C     94.92000000    37.66000000    20.00000000
   O     94.08000000    37.63000000    19.07000000
   O     95.59000000    36.64000000    20.24000000
   H     92.23000000    38.26000000    21.34000000
   H     94.26000000    40.34000000    21.98000000
   H     95.49000000    38.47000000    21.81000000
   H     95.81000000    39.59000000    20.46000000
   N     91.90000000    40.60000000    19.96000000
   C     91.13000000    41.60000000    19.24000000
   C     91.44000000    41.50000000    17.75000000
   O     90.82000000    42.25000000    16.99000000
   H     91.42000000    39.94000000    20.56000000
   H     91.36000000    42.61000000    19.56000000
   H     90.12000000    41.28000000    19.51000000
   N     92.25000000    40.57000000    17.26000000
   C     92.60000000    40.45000000    15.85000000
   C     91.40000000    40.19000000    14.95000000
   O     91.32000000    40.63000000    13.81000000
   C     93.71000000    39.43000000    15.70000000
   C     93.39000000    37.97000000    16.02000000
   N     94.38000000    37.09000000    15.86000000
   O     92.35000000    37.66000000    16.59000000
   H     92.71000000    39.94000000    17.90000000
   H     93.01000000    41.40000000    15.52000000
   H     94.55000000    39.64000000    16.37000000
   H     94.18000000    39.54000000    14.72000000
   H     95.26000000    37.36000000    15.43000000
   H     94.17000000    36.11000000    15.92000000
   N     90.39000000    39.49000000    15.48000000
   C     89.02000000    39.44000000    15.00000000
   C     88.32000000    38.09000000    15.05000000
   O     87.23000000    37.97000000    14.49000000
   H     90.68000000    39.03000000    16.33000000
   H     89.13000000    39.55000000    13.92000000
   H     88.46000000    40.25000000    15.46000000
   N     89.05000000    37.07000000    15.50000000
   C     88.68000000    35.68000000    15.32000000
   C     89.12000000    34.72000000    16.42000000
   O     89.99000000    35.01000000    17.24000000
   C     89.30000000    35.20000000    14.01000000
   C     90.74000000    35.41000000    13.61000000
   C     91.52000000    34.27000000    13.41000000
   C     91.23000000    36.70000000    13.35000000
   C     92.88000000    34.37000000    13.08000000
   C     92.52000000    36.73000000    12.82000000
   C     93.35000000    35.61000000    12.61000000
   O     94.60000000    35.76000000    12.09000000
   H     90.02000000    37.22000000    15.75000000
   H     87.60000000    35.55000000    15.25000000
   H     88.72000000    35.70000000    13.23000000
   H     88.98000000    34.17000000    13.85000000
   H     91.03000000    33.35000000    13.71000000
   H     90.57000000    37.56000000    13.39000000
   H     93.50000000    33.49000000    13.03000000
   H     92.86000000    37.72000000    12.54000000
   H     94.70000000    36.64000000    11.70000000
   N     88.27000000    33.71000000    16.60000000
   C     88.42000000    32.87000000    17.77000000
   C     89.22000000    31.64000000    17.37000000
   O     88.90000000    30.97000000    16.40000000
   C     87.13000000    32.46000000    18.48000000
   C     86.41000000    33.69000000    19.03000000
   C     87.15000000    31.41000000    19.58000000
   C     87.14000000    34.42000000    20.15000000
   H     87.59000000    33.56000000    15.87000000
   H     89.07000000    33.30000000    18.53000000
   H     86.47000000    32.13000000    17.67000000
   H     85.45000000    33.42000000    19.48000000
   H     86.10000000    34.36000000    18.23000000
   H     87.54000000    30.48000000    19.16000000
   H     87.66000000    31.78000000    20.47000000
   H     86.19000000    31.19000000    20.05000000
   H     88.14000000    34.70000000    19.82000000
   H     86.68000000    35.38000000    20.40000000
   H     87.16000000    33.91000000    21.11000000
   N     90.27000000    31.37000000    18.15000000
   C     91.13000000    30.20000000    18.20000000
   C     90.57000000    29.04000000    19.02000000
   O     89.59000000    29.22000000    19.73000000
   C     92.53000000    30.68000000    18.58000000
   O     92.88000000    30.66000000    19.95000000
   H     90.37000000    31.98000000    18.95000000
   H     91.26000000    29.73000000    17.22000000
   H     92.65000000    31.67000000    18.16000000
   H     93.29000000    29.99000000    18.21000000
   H     93.82000000    30.85000000    19.98000000
   N     91.22000000    27.88000000    18.98000000
   C     90.84000000    26.81000000    19.88000000
   C     91.22000000    27.06000000    21.33000000
   O     90.45000000    26.82000000    22.25000000
   C     91.45000000    25.48000000    19.46000000
   H     92.01000000    27.71000000    18.37000000
   H     89.76000000    26.65000000    19.78000000
   H     92.54000000    25.51000000    19.59000000
   H     91.15000000    24.69000000    20.14000000
   H     91.21000000    25.20000000    18.43000000
   N     92.38000000    27.70000000    21.50000000
   C     92.78000000    28.18000000    22.81000000
   C     91.91000000    29.29000000    23.39000000
   O     91.92000000    29.50000000    24.60000000
   C     94.21000000    28.68000000    22.68000000
   H     92.93000000    28.06000000    20.73000000
   H     92.75000000    27.35000000    23.52000000
   H     94.66000000    29.16000000    23.55000000
   H     94.92000000    27.91000000    22.40000000
   H     94.22000000    29.44000000    21.89000000
   N     91.19000000    30.02000000    22.54000000
   C     90.24000000    31.05000000    22.91000000
   C     88.84000000    30.46000000    23.05000000
   O     88.16000000    30.83000000    24.00000000
   C     90.25000000    32.27000000    22.00000000
   C     91.53000000    33.11000000    22.05000000
   C     91.57000000    34.22000000    21.01000000
   O     92.36000000    35.19000000    21.11000000
   O     90.88000000    34.08000000    19.97000000
   H     91.32000000    29.96000000    21.54000000
   H     90.56000000    31.34000000    23.91000000
   H     89.39000000    32.86000000    22.30000000
   H     90.12000000    31.84000000    21.01000000
   H     92.39000000    32.45000000    22.04000000
   H     91.58000000    33.49000000    23.07000000
   N     88.46000000    29.52000000    22.18000000
   C     87.25000000    28.73000000    22.35000000
   H     86.44800000    29.16200000    21.75100000
   H     87.43500000    27.70600000    22.02500000
   H     86.95900000    28.73100000    23.40100000
   H     89.13000000    29.19000000    21.50000000
  Ca     92.18000000    35.82000000    18.50000000
   O     94.52000000    34.61000000    19.12000000
   H     94.84000000    35.41000000    19.54000000
   H     95.29000000    34.21000000    18.73000000

Ca 1.70



