%Nproc=28
%chk=holo6.0.chk
%mem=80GB
%NoSave
#MP2(semidirect)/Gen scf=(tight,noincore) Test
#IOP(5/87=12) Density=Current Pop=(MK,readradii) iop(6/33=2) iop(6/42=6)

holo_loop_3_model_6.0 

   0   1
   C     30.98500000    25.04100000    43.02600000
   C     31.33400000    25.96000000    44.18800000
   O     30.51000000    26.54400000    44.88700000
   O     32.67700000    26.17800000    44.29000000
   H     30.13100000    25.44900000    42.48500000
   H     31.83900000    24.96500000    42.35300000
   H     30.73400000    24.05100000    43.40800000
   H     33.15800000    25.50900000    43.79700000
   C     28.35800000    28.25300000    48.32200000
   C     29.13900000    26.94800000    48.38400000
   O     28.54800000    25.87900000    48.64800000
   O     30.29300000    27.01200000    47.90800000
   H     27.41000000    28.13400000    48.84700000
   H     28.93700000    29.04600000    48.79500000
   H     28.16600000    28.51300000    47.28100000
   C     33.12700000    27.27800000    49.54800000
   C     32.75400000    25.80200000    49.52700000
   N     32.53100000    25.21000000    50.70300000
   O     32.57800000    25.17700000    48.48400000
   H     34.07800000    27.41900000    49.03400000
   H     32.35300000    27.85600000    49.04400000
   H     33.21900000    27.61500000    50.58000000
  HD     32.88700000    25.56700000    51.57800000
  HD     32.19300000    24.25800000    50.72200000
   C     34.13700000    22.37500000    46.69600000
   C     32.77100000    22.18000000    46.05400000
   O     31.95400000    23.08500000    45.90400000
   H     34.82400000    22.80100000    45.96500000
   H     34.04700000    23.05200000    47.54600000
   H     34.52000000    21.41300000    47.03600000
   N     32.39500000    20.92000000    45.82000000
   H     33.03300000    20.16000000    46.00600000
   H     31.47200000    20.72700000    45.45700000
   C     28.24600000    19.67100000    48.92700000
   O     27.32600000    20.69900000    48.63700000
   H     28.37800000    19.05300000    48.03900000
   H     29.19500000    20.10100000    49.25000000
   H     27.86700000    19.10900000    49.78100000
   H     27.80000000    21.37700000    48.14900000
   C     26.40100000    22.75300000    45.62300000
   C     27.83300000    23.19100000    45.89900000
   O     28.11900000    24.31800000    45.44000000
   O     28.57400000    22.52600000    46.65400000
   H     25.77100000    23.63300000    45.49500000
   H     26.37300000    22.15100000    44.71500000
   H     26.03300000    22.16300000    46.46200000
  Ca     30.23000000    24.59800000    47.16400000
   O     30.02800000    22.61900000    49.20100000
   H     29.22300000    22.20900000    48.88400000
   H     30.09300000    22.34400000    50.11500000

C O H 0
aug-cc-pVTZ 
****
@/home/pzhang5/ca_ccpvtz_basisset.gbs/N

Ca 1.70




