%chk=apoCaM-CA-Ng.loop1.water4.frame358.chk
%nprocshared=20
%mem=10GB
%nosave
#b3lyp/svp scf=(tight,noincore,xqc) Test 
#IOP(5/87=12) Density=Current Pop=(MK,readradii) iop(6/33=2) iop(6/42=6)

apoCaM-CA-Ng.loop1.water4.frame358 

   0  1 
C         51.59362      101.90947       43.95732
C         51.86842      102.95262       42.91282
O         52.88456      103.62667       42.99972
H         50.65138      101.36034       43.74467
H         52.42578      101.17392       43.97022
H         51.50941      102.38616       44.95487
N         51.00657      103.12591       41.87474
C         51.26795      104.03603       40.76767
C         50.75801      105.44888       41.03774
O         50.87122      106.25612       40.14038
C         50.60703      103.49238       39.47310
C         51.14094      102.14419       39.05960
O         51.70226      102.01248       37.98344
O         50.97770      101.06845       39.85262
H         50.17392      102.51857       41.82273
H         52.36174      104.08432       40.56209
H         50.80554      104.19867       38.63975
H         49.50585      103.42248       39.60363
N         50.18980      105.85711       42.20594
C         49.57516      107.18269       42.34597
C         50.39129      108.09944       43.24716
O         50.69812      107.67849       44.35393
C         48.15480      107.04992       42.93731
C         47.04772      106.60254       41.96409
C         47.24507      105.23247       41.30109
C         45.96432      104.73534       40.59449
N         45.53419      105.59161       39.48707
H         50.16150      105.21620       43.01253
H         49.47674      107.66765       41.37077
H         47.82541      108.05580       43.28280
H         48.18579      106.39192       43.83390
H         46.93348      107.37775       41.17745
H         46.11035      106.57377       42.56178
H         47.49126      104.48840       42.08832
H         48.08305      105.27760       40.57592
H         45.14387      104.66381       41.34157
H         46.15314      103.71359       40.19792
H         45.36172      106.57240       39.80265
H         46.24553      105.56502       38.72599
H         44.63835      105.21879       39.09830
N         50.71763      109.40147       42.92846
C         50.42120      110.13665       41.68731
C         48.93649      110.13258       41.34243
O         48.55529      109.56462       40.32909
C         51.35355      109.70534       40.53488
C         52.78187      110.10094       40.80769
O         53.09594      110.73876       41.95560
O         53.64296      109.88803       39.97005
H         51.20054      109.94671       43.65951
H         50.67793      111.20911       41.82520
H         51.05387      110.24967       39.61232
H         51.29190      108.62184       40.34859
N         48.01795      110.79344       42.09935
C         48.40122      111.66982       43.19592
C         47.22839      112.40760       43.81269
O         46.08731      112.08728       43.51602
H         47.03036      110.73259       41.81008
H         49.06703      112.44487       42.76102
H         48.94329      111.10924       43.98571
N         47.41182      113.47439       44.64544
C         48.71840      114.02535       45.00124
C         49.06056      115.20317       44.10213
O         48.23186      115.60873       43.29607
C         48.76795      114.37733       46.50787
C         47.81956      115.46737       46.95618
O         47.78589      115.81143       48.25722
O         47.09158      116.05107       46.16850
H         46.56599      113.98036       44.94800
H         49.50984      113.26717       44.82887
H         49.79641      114.69812       46.77714
H         48.53945      113.45660       47.08691
N         50.29315      115.78233       44.16040
C         50.68355      116.90193       43.31575
C         50.78278      116.57612       41.82905
O         51.05165      117.49743       41.07121
H         50.97830      115.43669       44.84985
H         51.68181      117.26876       43.64043
H         49.95501      117.72790       43.46807
N         50.60336      115.31489       41.33205
C         50.69202      114.97165       39.91160
C         49.36465      114.40599       39.43859
O         48.80812      113.54271       40.10484
C         51.81374      113.94128       39.66878
C         53.18573      114.51501       40.03251
O         51.82134      113.58971       38.30772
H         50.40794      114.54018       41.98089
H         50.93579      115.86468       39.29270
H         51.60673      113.04116       40.29386
H         52.21749      112.68239       38.24262
H         53.40417      115.41326       39.41439
H         53.22013      114.79830       41.10322
H         53.97296      113.75530       39.84101
N         48.81150      114.83870       38.26812
C         47.50934      114.38095       37.78524
C         47.58681      113.10618       36.95412
O         46.53699      112.55527       36.65665
C         46.78220      115.49295       36.96679
C         47.51346      115.79993       35.62483
C         46.60180      116.75484       37.82844
C         46.74061      116.74021       34.70295
H         49.33637      115.53045       37.71508
H         46.87844      114.14892       38.67360
H         45.76779      115.10725       36.71922
H         47.64479      114.85634       35.05584
H         48.51968      116.23111       35.80241
H         47.58398      117.20457       38.08676
H         45.99294      117.51500       37.30044
H         46.06865      116.50023       38.76879
H         46.62878      117.74652       35.15203
H         47.29949      116.85333       33.74933
H         45.73969      116.31604       34.47587
N         48.77270      112.61830       36.48640
C         48.86888      111.44393       35.62455
C         49.72707      110.39833       36.30602
O         50.85251      110.68622       36.68490
C         49.36570      111.82218       34.20747
C         50.73281      112.51091       34.15993
O         48.41178      112.66802       33.61457
H         49.64506      113.10983       36.72035
H         47.86330      110.99950       35.45510
H         49.42974      110.86958       33.62670
H         48.39969      112.46662       32.64213
H         50.70843      113.47685       34.70530
H         51.52453      111.86224       34.58282
H         50.99659      112.72244       33.10177
N         49.21749      109.15469       36.53208
C         49.91759      108.11832       37.28861
C         51.24010      107.70864       36.63840
O         51.59003      108.23176       35.58809
C         48.96067      106.91135       37.56793
C         48.54388      106.13717       36.31709
O         47.81108      107.29808       38.28807
H         48.26271      108.96142       36.19679
H         50.16546      108.53650       38.28162
H         49.48509      106.18785       38.20939
H         47.68877      108.28023       38.27569
H         47.90482      105.27846       36.61873
H         47.96715      106.77088       35.61527
H         49.43885      105.73153       35.80082
N         52.02823      106.76260       37.22654
C         53.30912      106.30896       36.70788
C         54.42728      106.34768       37.76934
O         55.57135      106.11012       37.41297
C         53.07790      104.87749       36.19483
C         54.15168      104.35622       35.23884
C         53.72247      102.98762       34.69351
C         54.63284      102.52580       33.55366
N         54.17056      101.24861       33.01135
H         51.66641      106.27362       38.04043
H         53.60054      106.95880       35.85397
H         52.13026      104.89470       35.60942
H         52.93201      104.18782       37.05517
H         55.14223      104.27469       35.73284
H         54.22670      105.07422       34.39287
H         52.68987      103.06427       34.28620
H         53.72112      102.24071       35.51845
H         55.67870      102.42470       33.91698
H         54.61070      103.28964       32.74379
H         53.18414      101.33681       32.67253
H         54.77803      100.97861       32.20491
H         54.22396      100.50640       33.74596
N         54.17104      106.59600       39.09432
C         55.18275      106.58558       40.15356
C         55.92269      105.26334       40.20746
O         55.29187      104.22064       40.31924
C         54.50860      106.83967       41.52936
C         55.47474      106.83159       42.73002
C         56.57068      107.84789       42.59177
O         57.73993      107.49866       42.60778
O         56.27048      109.14922       42.45167
H         53.20887      106.78627       39.38995
H         55.90450      107.41010       39.96468
H         53.73509      106.06177       41.71280
H         53.99250      107.81730       41.50356
H         55.91877      105.81967       42.85096
H         54.89508      107.05611       43.65128
N         57.28446      105.24894       40.19560
C         58.04740      104.02754       40.31929
H         59.13334      104.26282       40.34140
H         57.78343      103.51036       41.26708
H         57.83986      103.36081       39.45744
H         57.80286      106.13857       40.13525
Ca        55.07603      111.64431       42.50987
O         54.93721      114.51804       43.11198
H         54.32317      114.86012       43.80874
H         55.42095      115.31788       42.78623
O         57.77211      112.71392       42.88700
H         57.54353      113.60598       42.52321
H         58.47722      112.89008       43.55850
O         56.47757      110.78074       45.29901
H         57.17740      110.16141       44.97176
H         56.80940      111.08621       46.18039
O         56.73389      111.59147       40.01083
H         55.80918      111.24437       39.96262
H         56.69853      112.44462       39.51082

Ca 1.0



