%chk=apoCaM-CA-Ng.loop4.water3.frame58.chk
%nprocshared=20
%mem=10GB
%nosave
#b3lyp/svp scf=(tight,noincore,xqc) Test 
#IOP(5/87=12) Density=Current Pop=(MK,readradii) iop(6/33=2) iop(6/42=6)

apoCaM-CA-Ng.loop4.water3.frame58 

   -3  1 
C         42.34162       42.45507       79.21834
C         41.42782       41.38037       78.71337
O         40.47204       41.69452       78.02196
H         43.36744       42.27468       78.83254
H         42.00452       43.45534       78.87064
H         42.35872       42.44398       80.32742
N         41.68534       40.07585       79.01462
C         40.91839       38.93660       78.52314
C         41.09466       38.72136       76.97805
O         40.66986       39.79732       76.20229
C         39.51516       38.77364       79.20923
C         38.57468       39.94325       79.47062
O         37.89833       40.55761       78.48617
O         38.34816       40.27574       80.62414
H         42.50854       39.86903       79.60107
H         41.41872       38.01955       78.91004
H         39.75433       38.40286       80.23287
H         38.95942       37.94968       78.71609
N         42.51905       38.45357       76.68735
C         42.91085       38.12293       75.29571
C         42.26960       36.82259       74.81263
O         43.01185       35.88328       74.55823
C         42.78285       39.31567       74.29932
C         43.40216       39.00124       72.90916
C         43.42424       40.59247       74.88736
C         44.91713       38.74021       72.90041
H         42.84368       37.65997       77.28842
H         44.00356       37.93139       75.36057
H         41.71080       39.52518       74.10897
H         43.20585       39.86777       72.24348
H         42.89042       38.12068       72.46630
H         44.49499       40.43528       75.13065
H         43.34143       41.43361       74.16856
H         42.92068       40.90256       75.82505
H         45.25091       38.54978       71.85935
H         45.48169       39.61916       73.27420
H         45.18633       37.85011       73.50231
N         40.91509       36.66022       74.71604
C         40.32071       35.36243       74.40918
C         40.51987       34.96639       72.94754
O         41.17656       33.95457       72.74314
C         38.85512       35.26226       74.88300
C         38.75470       35.41565       76.37893
O         39.40983       34.56504       77.19416
O         38.06617       36.29981       76.86120
H         40.29030       37.43867       74.96372
H         40.84841       34.59667       75.02697
H         38.46120       34.25460       74.62627
H         38.21572       36.02352       74.40575
N         40.03814       35.64418       71.85844
C         39.24446       36.87055       71.88711
C         38.93304       37.41150       70.48315
O         39.37092       36.80834       69.51380
H         40.27937       35.23518       70.94362
H         39.81838       37.63937       72.43832
H         38.29466       36.65590       72.39090
N         38.21265       38.55468       70.23872
C         37.56016       39.42541       71.21211
C         38.54578       39.94192       72.24166
O         38.43357       39.57096       73.40213
C         36.30635       38.76546       71.83983
C         35.29578       38.38250       70.79226
O         34.82116       39.23144       70.05348
O         34.89441       37.10256       70.67683
H         38.11619       38.84302       69.25183
H         37.14947       40.31264       70.68166
H         35.82167       39.49753       72.52360
H         36.55972       37.87727       72.44240
N         39.52542       40.84147       71.94208
C         39.69336       41.51941       70.66687
C         40.56843       40.78146       69.68949
O         41.52768       40.14829       70.10551
H         40.11394       41.17345       72.71985
H         40.27285       42.44384       70.87908
H         38.73678       41.88950       70.24238
N         40.38276       40.95369       68.34744
C         41.31650       40.43761       67.34666
C         42.69336       41.10669       67.43131
O         43.58854       40.63877       66.74121
C         40.76429       40.63491       65.91556
C         39.48995       39.81366       65.66177
C         38.97469       40.02727       64.26136
N         38.53962       41.24573       63.86251
O         38.93820       39.08718       63.48142
H         39.56676       41.50112       68.03341
H         41.44981       39.34618       67.52210
H         41.52466       40.29634       65.17598
H         40.57723       41.71826       65.74603
H         38.68721       40.08651       66.37742
H         39.73334       38.73717       65.80513
H         38.54766       42.04744       64.50956
H         38.18250       41.38668       62.90581
N         42.94822       42.18587       68.23711
C         44.27654       42.78812       68.37524
C         44.32336       44.25313       67.95789
O         45.41410       44.80776       68.01508
C         44.81086       42.61858       69.82585
C         45.01692       41.13699       70.15839
C         43.91185       43.28543       70.88040
H         42.18608       42.59441       68.79199
H         45.00309       42.27509       67.70693
H         45.81421       43.09694       69.88568
H         44.05970       40.58211       70.12079
H         45.71947       40.67470       69.43255
H         45.45563       41.03589       71.17242
H         42.90999       42.81145       70.91411
H         44.37045       43.18515       71.88708
H         43.79227       44.36815       70.66534
N         43.23557       44.94191       67.49478
C         43.33774       46.32380       67.02115
C         42.42031       47.31343       67.72692
O         42.56169       48.48865       67.43089
C         43.12931       46.38106       65.49064
C         41.77189       45.94278       64.98839
N         41.50756       45.99143       63.66308
O         40.90836       45.55039       65.75822
H         42.32974       44.46008       67.41979
H         44.36614       46.70818       67.19895
H         43.89997       45.74131       65.00913
H         43.29962       47.42610       65.14936
H         42.22037       46.32599       62.99813
H         40.58735       45.70122       63.30109
N         41.50029       46.95800       68.67571
C         40.64284       47.95362       69.33957
C         40.02849       47.41129       70.62370
O         40.05560       46.21412       70.86777
C         39.45237       48.38448       68.43200
C         39.81465       49.02656       67.11720
C         39.52442       48.36533       65.91221
C         40.42749       50.29063       67.07470
C         39.86495       48.94163       64.68713
C         40.76202       50.86977       65.84474
C         40.48618       50.19244       64.64684
O         40.81005       50.73177       63.45443
H         41.45642       45.97319       68.96773
H         41.27985       48.81462       69.64182
H         38.79048       49.09852       68.96838
H         38.85128       47.46768       68.23865
H         39.04369       47.39560       65.91919
H         40.64813       50.82281       67.99154
H         39.64648       48.41221       63.76816
H         41.23747       51.84207       65.82344
H         41.24278       51.59384       63.37887
N         39.43642       48.28449       71.49580
C         38.71491       47.91182       72.71230
C         39.57055       47.23835       73.77996
O         39.02653       46.96713       74.84180
C         37.48429       47.04737       72.36526
C         36.53497       47.77614       71.40070
C         35.39467       46.88885       71.00068
O         34.12737       47.24501       71.28176
O         35.61079       45.84782       70.40014
H         39.46013       49.28988       71.26644
H         38.33768       48.85072       73.17954
H         36.91924       46.80838       73.29383
H         37.81874       46.08948       71.91649
H         37.07040       48.07626       70.47628
H         36.14618       48.69482       71.89373
N         40.90049       46.97357       73.61320
C         41.73462       46.38216       74.65182
C         42.79575       47.37008       75.11913
O         43.53197       47.02995       76.03512
C         42.40076       45.09137       74.12097
C         41.42189       44.01509       73.61466
C         40.55192       43.43677       74.69656
O         40.63923       42.25480       74.97805
O         39.64614       44.19664       75.33596
H         41.37240       47.22067       72.73530
H         41.13320       46.13556       75.55059
H         43.04050       44.64185       74.91292
H         43.06096       45.36855       73.26945
H         42.03024       43.19312       73.18102
H         40.78318       44.41773       72.80170
N         42.93037       48.61084       74.55783
C         43.90566       49.58674       74.99419
H         44.58861       49.82269       74.15154
H         43.37629       50.51490       75.29616
H         44.50935       49.23086       75.85394
H         42.32494       48.90805       73.78133
Ca        38.48173       39.97024       76.46356
O         37.17724       42.32090       74.12073
H         36.98086       42.61491       73.19592
H         36.36111       42.54935       74.63235
O         35.70727       39.83560       75.59607
H         35.52451       39.76588       76.56694
H         35.52541       38.92930       75.24193
O         37.09945       43.19682       77.29854
H         37.35634       44.01053       76.79698
H         37.33552       43.39989       78.23835

Ca 1.0



