%chk=apoCaM-CA-Ng.loop1.water2.frame1313.chk
%nprocshared=20
%mem=10GB
%nosave
#b3lyp/svp scf=(tight,noincore,xqc) Test 
#IOP(5/87=12) Density=Current Pop=(MK,readradii) iop(6/33=2) iop(6/42=6)

apoCaM-CA-Ng.loop1.water2.frame1313 

   0  1 
C         33.70554       16.85820       59.29514
C         33.25204       16.35032       60.62930
O         32.44872       17.01302       61.27135
H         34.81086       16.96615       59.28966
H         33.39857       16.14288       58.50557
H         33.25333       17.85064       59.07928
N         33.76898       15.19139       61.13383
C         33.40283       14.66826       62.44834
C         34.47146       15.00885       63.46894
O         34.91728       14.15429       64.22295
C         33.05575       13.16103       62.37697
C         34.19005       12.25199       61.95228
O         35.30368       12.68663       61.70155
O         33.96951       10.92733       61.86123
H         34.49581       14.71063       60.58500
H         32.49464       15.19522       62.81188
H         32.21600       13.02607       61.66293
H         32.71041       12.82676       63.37954
N         34.91044       16.29266       63.54798
C         35.84822       16.76957       64.54984
C         35.17662       16.76170       65.91424
O         35.72207       16.11562       66.79764
C         36.43981       18.14224       64.14500
C         37.23010       17.98134       62.82995
C         37.76892       19.30167       62.28186
C         38.51708       19.04269       60.96369
N         38.98175       20.28941       60.36170
H         34.55513       16.96842       62.85843
H         36.72556       16.08255       64.58623
H         37.13378       18.50141       64.93648
H         35.65084       18.90716       64.01509
H         36.57220       17.54905       62.04678
H         38.07481       17.27698       63.00010
H         38.45296       19.77357       63.01996
H         36.91391       19.98643       62.09031
H         37.83933       18.52890       60.24446
H         39.38773       18.37593       61.15596
H         38.16423       20.90294       60.13972
H         39.63338       20.78359       61.01265
H         39.48745       20.06826       59.47332
N         33.97982       17.36388       66.20143
C         33.13729       18.14445       65.29012
C         31.85138       17.39550       64.96799
O         31.64677       16.30329       65.47757
C         32.89912       19.54466       65.88474
C         32.32762       19.48445       67.26861
O         31.21951       19.01753       67.47083
O         33.07386       19.90905       68.30124
H         33.61350       17.21781       67.15584
H         33.62334       18.29727       64.31992
H         32.24290       20.15923       65.23305
H         33.88583       20.05482       65.94412
N         30.98461       17.87959       64.03130
C         29.84962       17.10234       63.55324
C         28.66792       17.09492       64.49299
O         28.65035       17.83519       65.46555
H         31.21110       18.76122       63.54684
H         30.18947       16.06538       63.34358
H         29.48340       17.53072       62.59615
N         27.62421       16.25194       64.23215
C         26.38483       16.21020       65.00825
C         25.16646       16.18263       64.08549
O         25.32521       15.89562       62.90797
C         26.42132       14.97620       65.94129
C         27.43682       15.25289       67.00478
O         28.44602       14.57553       67.10915
O         27.25490       16.34395       67.77506
H         27.73439       15.57585       63.46068
H         26.31165       17.13071       65.61822
H         26.66290       14.05931       65.35906
H         25.46016       14.79280       66.45260
N         23.89696       16.46128       64.51986
C         23.55743       16.93601       65.85338
C         24.06256       18.33807       66.10167
O         24.55187       18.98221       65.18228
H         23.11991       16.35744       63.84864
H         23.93992       16.24415       66.62142
H         22.45276       16.96782       65.97100
N         23.96933       18.87646       67.34905
C         24.39761       20.23904       67.66511
C         25.85730       20.47158       67.28591
O         26.61915       19.52173       67.18805
C         24.12289       20.55864       69.16150
C         24.37604       22.02146       69.53095
O         24.91702       19.75495       69.99307
H         23.55529       18.29096       68.09041
H         23.77249       20.91372       67.03890
H         23.04380       20.37149       69.37278
H         24.49760       18.85806       70.04151
H         25.44856       22.28212       69.41670
H         23.75841       22.69398       68.89953
H         24.10144       22.18752       70.59473
N         26.27117       21.73558       66.97519
C         27.59769       22.11345       66.49609
C         28.65757       21.86942       67.54985
O         28.92473       20.72781       67.89970
C         27.94043       21.45012       65.13162
C         26.82903       21.68310       64.07247
C         29.30871       21.92777       64.60797
C         26.50875       23.15265       63.77324
H         25.58038       22.49765       67.04230
H         27.56809       23.20975       66.31727
H         28.02090       20.35268       65.27051
H         25.89109       21.19883       64.41609
H         27.12758       21.18368       63.12546
H         29.54381       21.43174       63.64237
H         29.32594       23.02761       64.46407
H         30.11621       21.66214       65.32225
H         26.11729       23.66878       64.67395
H         27.40003       23.69283       63.39639
H         25.71817       23.20312       62.99604
N         29.29590       22.93325       68.11045
C         30.30034       22.82336       69.15302
C         29.75197       23.32525       70.48421
O         30.49447       23.32587       71.45122
C         31.60159       23.55781       68.73084
C         31.44155       25.07300       68.55812
O         32.06952       23.02245       67.51864
H         29.01480       23.88189       67.81846
H         30.57681       21.76098       69.31396
H         32.36474       23.41436       69.53425
H         32.75948       22.34698       67.74062
H         30.73314       25.31636       67.74061
H         31.09012       25.54239       69.50032
H         32.42468       25.51903       68.29453
N         28.45161       23.74775       70.61410
C         27.90296       24.22525       71.87677
C         27.90947       23.11605       72.90968
O         27.19412       22.13595       72.75468
C         26.45690       24.75839       71.67864
C         25.80970       25.24686       72.98399
O         26.43904       25.78713       70.72096
H         27.82841       23.74601       69.79764
H         28.53430       25.07367       72.22270
H         25.82621       23.92977       71.29211
H         26.98101       26.53888       71.07786
H         26.39944       26.07643       73.42680
H         24.77879       25.60362       72.77719
H         25.73921       24.42174       73.72385
N         28.71376       23.22634       74.00245
C         28.76631       22.27938       75.10742
C         29.03620       20.86402       74.58934
O         28.32778       19.93205       74.94587
C         27.44559       22.38238       75.91806
C         27.61849       22.12832       77.42541
C         28.19691       23.38209       78.11748
C         28.29816       23.21956       79.63764
N         28.66461       24.48997       80.26807
H         29.34361       24.04119       74.06379
H         29.61811       22.61004       75.73945
H         26.68947       21.70025       75.47305
H         27.00762       23.40067       75.81907
H         28.22708       21.21647       77.60903
H         26.60752       21.96726       77.85856
H         27.50571       24.23065       77.91312
H         29.19665       23.64591       77.71334
H         29.05866       22.44411       79.87629
H         27.31664       22.89238       80.04625
H         29.57485       24.83960       79.89031
H         27.91778       25.20230       80.09156
H         28.75184       24.35169       81.30047
N         29.97198       20.67640       73.61760
C         30.11714       19.43047       72.86998
C         30.84927       19.70637       71.56067
O         30.21581       19.54698       70.52723
C         30.71018       18.28363       73.72020
C         30.95071       16.98415       72.92494
C         29.69676       16.42603       72.31408
O         29.63580       16.23976       71.11142
O         28.64570       16.10084       73.08943
H         30.48579       21.50754       73.29525
H         29.09756       19.10446       72.57342
H         30.02254       18.06114       74.56292
H         31.66663       18.59336       74.17497
H         31.36694       16.21843       73.61195
H         31.70542       17.16825       72.12789
N         32.13192       20.15879       71.46198
C         33.04999       20.36378       72.55742
H         34.00336       20.77332       72.16121
H         32.65056       21.08627       73.29255
H         33.29396       19.39786       73.03542
H         32.48864       20.37662       70.52504
Ca        28.91949       17.46985       68.76654
O         27.31517       18.64705       70.74070
H         27.07696       19.34863       71.39659
H         27.01460       17.79985       71.15496
O         31.32986       15.59077       68.35782
H         30.55452       15.06240       68.67154
H         30.92910       16.29385       67.79081

Ca 1.0



