%chk=apoCaM-CA-Ng.loop3.water3.frame512.chk
%nprocshared=20
%mem=10GB
%nosave
#b3lyp/svp scf=(tight,noincore,xqc) Test 
#IOP(5/87=12) Density=Current Pop=(MK,readradii) iop(6/33=2) iop(6/42=6)

apoCaM-CA-Ng.loop3.water3.frame512 

   0  1 
C         89.11353       59.21607       58.53083
C         89.36390       58.79467       59.94906
O         88.43104       58.36377       60.61173
H         88.36084       60.03136       58.51263
H         90.04303       59.58351       58.04630
H         88.73270       58.35122       57.94864
N         90.61353       58.88104       60.48285
C         90.92338       58.47364       61.84809
C         90.16118       59.35333       62.82006
O         90.33528       60.56356       62.77046
C         92.44897       58.57569       62.07765
C         92.95695       57.89507       63.32079
O         94.15984       57.87647       63.52828
O         92.14764       57.17952       64.12775
H         91.37671       59.23295       59.88326
H         90.63011       57.41008       61.96603
H         92.76427       59.64192       62.06918
H         92.95956       58.06353       61.23321
N         89.29892       58.81468       63.73084
C         88.52700       59.62600       64.66915
C         89.13554       59.57591       66.06885
O         88.70038       60.33534       66.92287
C         87.04160       59.20891       64.58839
C         86.09840       60.11883       65.39152
C         84.62891       59.74664       65.15485
C         83.69653       60.67811       65.94263
N         82.29294       60.35008       65.69549
H         89.20859       57.78901       63.78490
H         88.59052       60.69376       64.36478
H         86.92478       58.15341       64.91978
H         86.74067       59.27126       63.51852
H         86.25402       61.17206       65.06992
H         86.31644       60.03291       66.47572
H         84.45383       58.69477       65.47085
H         84.39869       59.83681       64.07032
H         83.88143       61.73277       65.63873
H         83.91042       60.58415       67.03067
H         82.09454       59.36649       65.99010
H         81.68795       60.99864       66.24947
H         82.07050       60.46703       64.68007
N         90.21485       58.78739       66.34574
C         90.99152       58.86556       67.57652
C         92.39375       59.42169       67.30466
O         93.11538       59.66550       68.26099
C         91.00842       57.49437       68.28390
C         91.49335       56.36380       67.41071
O         92.73754       56.36950       66.90313
O         90.75151       55.42748       67.15939
H         90.55813       58.13948       65.63066
H         90.52600       59.59173       68.27813
H         89.96753       57.26544       68.60186
H         91.63485       57.55188       69.19954
N         92.82407       59.70930       66.03803
C         94.06591       60.39427       65.71983
C         95.36255       59.70989       66.10648
O         96.38520       60.32542       65.83845
H         92.20985       59.52949       65.23672
H         94.04554       61.39145       66.20886
H         94.10066       60.56456       64.61985
N         95.44129       58.49899       66.74338
C         96.72380       57.94100       67.18097
C         96.98510       56.55208       66.63199
O         96.08718       55.92608       66.08697
C         96.83652       57.93413       68.72895
C         96.15209       56.77165       69.42895
N         94.81177       56.59605       69.40687
O         96.84372       55.96752       70.03721
H         94.58216       57.98670       66.95223
H         97.54156       58.59717       66.81412
H         96.48949       58.90620       69.14143
H         97.91890       57.85248       68.97300
H         94.19032       57.25914       68.93426
H         94.38846       55.78624       69.88519
N         98.22303       56.00372       66.78630
C         98.56720       54.63492       66.45047
C         98.24165       54.27119       65.02280
O         98.68678       54.94620       64.10558
H         98.96902       56.58234       67.20218
H         98.03425       53.95297       67.14769
H         99.65688       54.49281       66.61880
N         97.49123       53.16058       64.77427
C         97.14838       52.69236       63.43559
C         96.18992       53.61915       62.71620
O         95.73511       54.60728       63.27338
C         96.56345       51.25815       63.51930
C         97.67275       50.25922       63.73695
C         98.59963       50.03899       62.70125
C         97.79915       49.53950       64.93435
C         99.63613       49.12007       62.85840
C         98.84697       48.62267       65.09352
C         99.76762       48.41054       64.05389
O        100.77934       47.53009       64.18970
H         97.19487       52.59002       65.58163
H         98.07087       52.67099       62.81474
H         96.05919       50.94821       62.58054
H         95.78925       51.22528       64.31823
H         98.51259       50.57602       61.76395
H         97.09800       49.69386       65.74451
H        100.33671       48.96106       62.04779
H         98.94328       48.07751       66.02343
H        100.91248       47.01808       64.99943
N         95.89605       53.34061       61.41213
C         95.08807       54.14040       60.50371
C         93.61403       54.20405       60.99048
O         93.53814       55.28932       61.85470
C         95.74955       55.55177       60.26503
C         95.02403       56.41666       59.19918
C         97.24841       55.43091       59.93546
C         95.02369       55.82858       57.78500
H         96.32525       52.50036       60.99512
H         95.09898       53.58526       59.54097
H         95.70857       56.13152       61.21330
H         95.51499       57.41354       59.15642
H         93.97589       56.59830       59.50977
H         97.79508       54.94890       60.77307
H         97.41733       54.82999       59.02040
H         97.69085       56.44163       59.80164
H         94.49973       54.85346       57.75149
H         94.49426       56.52374       57.10087
H         96.05806       55.70186       57.40654
N         92.71713       54.41961       59.84384
C         91.32018       54.80023       60.14024
C         90.36941       53.63827       60.44641
O         89.19228       53.91413       60.63721
C         90.79844       55.60545       58.94038
O         90.80273       54.81212       57.78340
H         92.77195       53.64109       59.14746
H         91.29124       55.48718       61.00789
H         91.46362       56.49135       58.80733
H         89.76685       55.97165       59.13419
H         90.88367       55.43347       57.01382
N         90.77816       52.33727       60.52881
C         89.86647       51.22089       60.79598
C         90.20342       50.59491       62.14023
O         91.35587       50.68346       62.53958
C         89.99379       50.19857       59.66701
H         91.77614       52.11207       60.41495
H         88.81634       51.57422       60.81766
H         91.03422       49.81369       59.60824
H         89.31045       49.34328       59.82420
H         89.73433       50.67709       58.69872
N         89.28165       50.00991       62.96433
C         87.87307       49.76068       62.66284
C         87.73274       48.48629       61.83546
O         88.30584       47.48964       62.25532
C         87.10803       49.51965       63.97565
H         89.62177       49.71296       63.89382
H         87.40127       50.66624       62.24641
H         86.03158       49.33715       63.76306
H         87.51126       48.64204       64.52668
H         87.18399       50.41254       64.63181
N         86.95062       48.34712       60.72248
C         86.13985       49.37467       60.08447
C         86.37553       49.33673       58.58489
O         86.82499       50.32860       58.02750
C         84.65883       49.13293       60.44185
C         83.72129       50.19136       59.84268
C         82.30758       49.97367       60.30124
O         81.67328       50.93031       61.00593
O         81.72523       48.93390       60.03597
H         86.87500       47.39299       60.33516
H         86.40237       50.38266       60.45098
H         84.56841       49.17337       61.55030
H         84.33976       48.12050       60.11104
H         83.75002       50.14658       58.73287
H         84.05392       51.20163       60.16583
N         86.08731       48.21553       57.86383
C         86.29812       48.13636       56.43540
H         87.37290       48.28827       56.20146
H         85.99296       47.13405       56.06428
H         85.68872       48.90649       55.91723
H         85.70270       47.38499       58.33780
Ca        92.29915       54.99443       63.69273
O         94.31254       53.69369       66.91882
H         94.79787       52.83112       66.94361
H         93.90149       53.77528       67.81593
O         89.43337       54.55635       64.07225
H         89.73089       53.90088       63.39227
H         89.68972       55.43545       63.69604
O         92.36414       52.13396       65.26507
H         92.37675       52.32986       64.29517
H         91.45709       51.77593       65.43565

Ca 1.0



