%chk=apoCaM-CA-Ng.loop1.water5.frame339.chk
%nprocshared=20
%mem=10GB
%nosave
#b3lyp/svp scf=(tight,noincore,xqc) Test 
#IOP(5/87=12) Density=Current Pop=(MK,readradii) iop(6/33=2) iop(6/42=6)

apoCaM-CA-Ng.loop1.water5.frame339 

   0  1 
C         65.16990      113.14848       66.21903
C         65.60171      113.69539       64.88976
O         66.73914      113.49509       64.48923
H         64.30509      112.46505       66.07730
H         65.99355      112.58704       66.70689
H         64.86030      113.98469       66.88117
N         64.71246      114.39533       64.13841
C         65.01434      114.94449       62.82009
C         65.89337      116.19838       62.88473
O         66.04130      116.82030       61.85195
C         63.69146      115.32521       62.09439
C         62.78756      114.14380       61.83984
O         62.25397      113.44888       62.86231
O         62.50810      113.82691       60.69415
H         63.75661      114.50076       64.51277
H         65.50543      114.17158       62.18690
H         63.93908      115.76500       61.10174
H         63.13754      116.09320       62.67722
N         66.45024      116.69305       64.02833
C         67.00090      118.05177       64.09608
C         68.47249      118.07716       64.49298
O         68.79537      117.43684       65.48351
C         66.14965      118.83840       65.11265
C         64.67999      118.88662       64.65247
C         63.75439      119.50412       65.69728
C         62.30177      119.45763       65.19805
N         61.37720      119.94033       66.22050
H         66.37442      116.16901       64.91048
H         66.88243      118.56197       63.13655
H         66.53371      119.87643       65.21945
H         66.21515      118.33461       66.10235
H         64.31099      117.85550       64.46983
H         64.61237      119.45451       63.70249
H         64.05456      120.55327       65.90853
H         63.83356      118.90885       66.63311
H         62.03073      118.40843       64.94044
H         62.20153      120.07713       64.27848
H         61.45025      119.34205       67.07569
H         61.59246      120.93428       66.46166
H         60.40073      119.87918       65.85141
N         69.44240      118.82490       63.85573
C         69.28715      119.71723       62.69826
C         68.25977      120.82270       62.93877
O         67.16482      120.74472       62.40487
C         69.06771      118.95065       61.37299
C         70.29942      118.23768       60.88239
O         71.46109      118.31034       61.55821
O         70.26455      117.64201       59.81835
H         70.39131      118.78933       64.26047
H         70.24385      120.24925       62.51689
H         68.84425      119.68684       60.58285
H         68.22166      118.24485       61.44195
N         68.54006      121.95085       63.65047
C         69.85538      122.25726       64.19690
C         69.92321      123.63676       64.83375
O         68.91295      124.32347       64.89498
H         67.77862      122.64095       63.73844
H         70.58400      122.26578       63.35819
H         70.14171      121.48527       64.94183
N         71.08735      124.16239       65.31346
C         72.38664      123.49723       65.30053
C         73.32837      124.26521       64.39383
O         73.51027      125.45956       64.59158
C         72.95129      123.33777       66.72739
C         73.22509      124.62832       67.45728
O         74.36381      124.90191       67.80106
O         72.22147      125.46789       67.77416
H         71.04589      125.12341       65.68432
H         72.29533      122.46489       64.90698
H         73.90130      122.76368       66.64788
H         72.24187      122.73241       67.33157
N         73.93330      123.63624       63.34618
C         74.74096      124.32372       62.35188
C         74.12758      124.22266       60.96673
O         74.68207      124.81384       60.05238
H         73.79477      122.62105       63.22756
H         75.76304      123.88952       62.34014
H         74.83465      125.40498       62.59411
N         72.97949      123.51334       60.73460
C         72.29699      123.46313       59.44925
C         70.91348      124.02963       59.67873
O         70.18749      123.49766       60.50872
C         72.22370      122.01696       58.91797
C         73.62191      121.39545       58.80820
O         71.61266      122.03327       57.65307
H         72.52604      123.00046       61.50163
H         72.83903      124.07598       58.69475
H         71.61685      121.40292       59.62391
H         71.38720      121.09365       57.42720
H         74.26684      121.99147       58.12848
H         74.09995      121.34823       59.80902
H         73.54624      120.35833       58.41877
N         70.51630      125.16952       59.05065
C         69.31309      125.88628       59.46453
C         68.01130      125.11187       59.22538
O         66.99114      125.56070       59.72988
C         69.32250      127.32739       58.86152
C         68.39345      128.29027       59.64322
C         69.01774      127.31481       57.35143
C         68.61938      129.76181       59.28254
H         71.16021      125.60582       58.37373
H         69.42110      126.01199       60.56615
H         70.35421      127.71954       59.01361
H         68.62575      128.19973       60.72741
H         67.32573      128.03145       59.49170
H         67.97792      126.97065       57.16698
H         69.13750      128.32423       56.91002
H         69.71406      126.63876       56.81431
H         67.98328      130.40324       59.92801
H         69.68160      130.04070       59.45774
H         68.35650      129.97032       58.22696
N         67.95258      123.95689       58.48662
C         66.70793      123.20353       58.28848
C         66.83365      121.76244       58.77393
O         67.92113      121.34838       59.14468
C         66.25789      123.27643       56.80697
C         67.20460      122.54608       55.84847
O         66.15996      124.61846       56.40411
H         68.80734      123.60495       58.03193
H         65.89565      123.66366       58.89208
H         65.26107      122.79100       56.69715
H         65.40002      125.01703       56.90352
H         66.81482      122.62715       54.81148
H         68.22241      122.98559       55.87340
H         67.26648      121.46782       56.10566
N         65.73363      120.95138       58.81892
C         65.73395      119.59420       59.38054
C         66.18886      118.54150       58.35590
O         66.55695      118.91775       57.25241
C         64.37307      119.30432       60.08843
C         63.19034      119.13572       59.13930
O         64.05886      120.34410       60.98104
H         64.83087      121.37038       58.55306
H         66.46973      119.56029       60.20890
H         64.44587      118.35724       60.66281
H         64.79659      120.40601       61.63785
H         62.99993      120.05450       58.55152
H         63.36607      118.29458       58.45140
H         62.27895      118.90636       59.73386
N         66.21517      117.20394       58.66649
C         66.73893      116.15529       57.78122
C         67.87252      115.33556       58.42190
O         68.46645      114.53410       57.71260
C         65.62836      115.14696       57.40737
C         64.42485      115.77197       56.69147
C         63.32419      114.74171       56.37443
C         63.74964      113.69478       55.32980
N         62.65885      112.76111       55.05119
H         65.83002      116.90760       59.56468
H         67.14025      116.61569       56.85247
H         65.26930      114.64694       58.33585
H         66.07596      114.37803       56.74532
H         64.74784      116.28203       55.75863
H         63.98017      116.52359       57.36500
H         62.44563      115.29197       55.97268
H         63.01100      114.23484       57.31414
H         64.62294      113.11206       55.68902
H         64.03644      114.21534       54.38920
H         62.96969      112.08116       54.31994
H         62.41110      112.23219       55.91909
H         61.81973      113.27644       54.69931
N         68.18620      115.41563       59.74937
C         69.19038      114.57716       60.40615
C         68.85970      113.10164       60.24104
O         67.77911      112.68330       60.63678
C         69.23307      114.89297       61.92588
C         70.33479      114.13054       62.68590
C         71.69972      114.61920       62.30462
O         72.51684      113.86672       61.79893
O         72.02435      115.90084       62.55314
H         67.68173      116.08321       60.33478
H         70.18419      114.80398       59.96179
H         68.25100      114.62095       62.36882
H         69.37403      115.97980       62.09469
H         70.24064      113.03704       62.51194
H         70.21184      114.30948       63.77522
N         69.77132      112.24388       59.70659
C         69.52214      110.82117       59.61190
H         68.63549      110.62726       58.97287
H         70.40397      110.30922       59.17129
H         69.34607      110.40148       60.62653
H         70.68323      112.60242       59.38575
Ca        74.02495      116.81346       62.04690
O         74.72680      115.34408       64.59513
H         75.58554      115.13004       64.15121
H         74.05914      114.79044       64.11820
O         76.06251      115.18415       60.68582
O         75.53711      119.23558       60.84015
H         76.89413      115.15687       61.22216
H         75.86107      119.31086       59.90766
H         75.46441      114.52596       61.12175
H         75.86933      120.05442       61.28704
O         76.62731      117.87026       63.35274
H         77.48099      117.37659       63.26541
H         76.70638      118.35822       64.21048
O         73.52657      116.84721       59.09141
H         72.69211      116.95776       58.57079
H         74.20523      117.36349       58.58833

Ca 1.0



