%chk=apoCaM-CA-Ng.loop1.water4.frame39.chk
%nprocshared=20
%mem=10GB
%nosave
#b3lyp/svp scf=(tight,noincore,xqc) Test 
#IOP(5/87=12) Density=Current Pop=(MK,readradii) iop(6/33=2) iop(6/42=6)

apoCaM-CA-Ng.loop1.water4.frame39 

   0  1 
C         75.74389       55.80280       61.82354
C         75.92905       54.69538       62.82055
O         76.35945       54.96592       63.93225
H         75.01914       56.54240       62.22508
H         76.71441       56.30562       61.63577
H         75.35002       55.42017       60.85782
N         75.59252       53.41579       62.49920
C         75.67121       52.31420       63.45479
C         77.09314       51.95044       63.88909
O         77.22401       51.15277       64.80563
C         74.96598       51.05631       62.89737
C         75.64242       50.45106       61.69326
O         75.72436       51.07469       60.64796
O         76.13324       49.19818       61.75684
H         75.19127       53.24712       61.56558
H         75.10050       52.62825       64.35259
H         73.91423       51.29863       62.63317
H         74.93967       50.30140       63.70220
N         78.19439       52.41409       63.23376
C         79.54878       51.93276       63.51222
C         80.13369       52.56993       64.76753
O         80.06003       53.78817       64.85100
C         80.49211       52.26378       62.33132
C         80.03840       51.72319       60.95782
C         79.82843       50.19864       60.92300
C         79.60083       49.66128       59.49789
N         78.36217       50.15319       58.89423
H         78.05378       53.03792       62.42813
H         79.52316       50.83822       63.58174
H         81.49620       51.84009       62.55592
H         80.60581       53.36645       62.23873
H         80.83353       51.99342       60.22960
H         79.10676       52.23250       60.64282
H         78.97368       49.90562       61.56942
H         80.73958       49.70928       61.31684
H         79.55507       48.55039       59.54648
H         80.46321       49.94004       58.85473
H         77.54614       49.83948       59.46296
H         78.36797       51.19386       58.80798
H         78.26905       49.74886       57.93484
N         80.81793       51.90213       65.75424
C         81.10229       50.47138       65.87430
C         81.84202       49.90868       64.66704
O         81.22309       49.23065       63.85948
C         79.85972       49.63408       66.22095
C         79.12216       50.09351       67.44680
O         78.10433       49.33594       67.87129
O         79.40441       51.12441       68.03629
H         81.21712       52.48614       66.50716
H         81.75073       50.32132       66.76530
H         80.19730       48.58957       66.40367
H         79.13949       49.60518       65.38294
N         83.18419       50.03087       64.48763
C         84.12195       50.61071       65.41982
C         84.14694       52.11933       65.40739
O         83.37726       52.72713       64.67810
H         83.60282       49.58033       63.66491
H         85.11077       50.27548       65.06940
H         83.97105       50.19798       66.43892
N         85.04348       52.82548       66.15908
C         86.02833       52.22038       67.06044
C         86.95178       51.29363       66.28637
O         87.05475       50.12648       66.64056
C         86.85882       53.29286       67.80359
C         86.02119       54.15038       68.72098
O         86.24782       54.13128       70.04853
O         85.15077       54.88068       68.27540
H         85.02319       53.85233       66.06747
H         85.49856       51.62781       67.84085
H         87.40206       53.94220       67.08416
H         87.61329       52.76934       68.43221
N         87.60933       51.73331       65.17905
C         88.43339       50.87133       64.34819
C         87.62684       49.82712       63.58324
O         86.76869       50.19881       62.79544
H         87.52507       52.72550       64.91013
H         89.22698       50.40656       64.97219
H         88.94004       51.49986       63.58399
N         87.92098       48.49967       63.70847
C         87.35042       47.44221       62.86232
C         85.83908       47.28516       62.99843
O         85.33583       47.14675       64.10449
C         88.05110       46.07132       63.08651
C         87.90490       45.47869       64.49859
O         89.40744       46.14560       62.71797
H         88.65706       48.24728       64.38239
H         87.57510       47.69985       61.80293
H         87.57810       45.34429       62.38881
H         89.89780       46.64621       63.41904
H         86.84062       45.30842       64.75482
H         88.41646       44.49394       64.53601
H         88.36028       46.13909       65.26416
N         85.06020       47.25109       61.87512
C         83.60711       47.07036       61.90206
C         83.18162       45.71494       62.44616
O         83.97212       44.78194       62.45972
C         82.95802       47.27964       60.49415
C         83.41329       46.19654       59.47134
C         83.23625       48.70542       59.98337
C         82.70347       46.28487       58.11987
H         85.52734       47.38007       60.96729
H         83.18912       47.83345       62.57498
H         81.85510       47.18671       60.62021
H         83.18498       45.18884       59.87908
H         84.50766       46.25345       59.29599
H         82.66726       48.91094       59.05569
H         82.91956       49.45236       60.73870
H         84.31283       48.86298       59.77287
H         82.94314       47.23046       57.59495
H         83.03934       45.44604       57.47341
H         81.60647       46.20846       58.25595
N         81.89358       45.55236       62.87065
C         81.30759       44.26826       63.25746
C         80.05195       43.93635       62.44335
O         79.70380       42.76528       62.38020
C         81.00240       44.23287       64.77233
C         79.93574       45.27253       65.18245
O         82.21048       44.43925       65.46673
H         81.31558       46.40036       62.92608
H         82.04457       43.45923       63.05347
H         80.61372       43.22008       65.02576
H         82.00561       44.74249       66.38872
H         79.70988       45.17445       66.26533
H         80.29398       46.30525       64.99509
H         78.98670       45.10925       64.63048
N         79.30229       44.91068       61.83933
C         78.08249       44.71583       61.05800
C         76.92845       44.12438       61.86171
O         77.14543       43.33885       62.77033
C         78.31606       43.86557       59.78368
C         79.49850       44.36922       58.95519
O         77.15627       43.90691       58.98918
H         79.59207       45.89191       61.91810
H         77.76515       45.73049       60.72146
H         78.52758       42.81560       60.09233
H         77.12750       43.06867       58.45935
H         79.33315       45.42127       58.64271
H         80.44058       44.29912       59.53882
H         79.61256       43.73729       58.04850
N         75.65010       44.38872       61.46532
C         74.47395       43.67381       61.96726
C         73.45857       44.56138       62.65969
O         72.57931       44.00500       63.30901
C         73.77825       42.92356       60.79795
C         73.45974       43.84966       59.60086
C         72.72405       43.14067       58.46348
C         72.67607       44.05417       57.22504
N         72.00344       43.39915       56.10609
H         75.52578       45.08960       60.72442
H         74.78723       42.92408       62.72618
H         72.84678       42.44253       61.17096
H         74.45300       42.11880       60.43429
H         74.41789       44.20509       59.17434
H         72.85999       44.72741       59.92684
H         71.69693       42.87199       58.79412
H         73.27228       42.21333       58.19192
H         73.71834       44.30181       56.91802
H         72.15294       45.00619       57.46751
H         72.48331       42.49882       55.87548
H         71.00248       43.21927       56.34716
H         72.04688       44.02611       55.26996
N         73.45311       45.91519       62.53854
C         72.44258       46.75910       63.16707
C         71.53713       47.37658       62.12683
O         71.76151       47.21088       60.93312
C         73.14242       47.83841       63.99865
C         73.77096       47.24192       65.25911
C         74.62766       48.26073       65.92839
O         75.65933       48.62250       65.38444
O         74.30813       48.76411       67.13441
H         74.15835       46.37716       61.94385
H         71.76811       46.16639       63.82481
H         72.43120       48.62613       64.32906
H         73.90743       48.31458       63.34981
H         74.40999       46.36257       65.02583
H         72.95502       46.91623       65.94014
N         70.43508       48.06413       62.52923
C         69.48321       48.61971       61.59633
H         68.64994       49.09997       62.15218
H         69.97733       49.37923       60.95621
H         69.06232       47.80935       60.96298
H         70.24343       48.16918       63.53849
Ca        75.98643       50.03673       67.86576
O         76.88704       52.71634       69.09802
O         74.96444       53.54001       66.82913
H         76.99237       53.20532       69.95204
H         74.77358       54.34270       67.37558
H         77.62632       53.04772       68.52900
H         75.82175       53.74608       66.37882
O         73.14897       51.21357       65.76581
H         72.64232       51.44462       64.94736
H         72.53976       51.44557       66.51057
O         75.95747       49.04909       70.55247
H         76.84054       49.44169       70.33599
H         75.52551       49.72311       71.13428

Ca 1.0



