%chk=apoCaM-CA-Ng.loop2.water4.frame693.chk
%nprocshared=20
%mem=10GB
%nosave
#b3lyp/svp scf=(tight,noincore,xqc) Test 
#IOP(5/87=12) Density=Current Pop=(MK,readradii) iop(6/33=2) iop(6/42=6)

apoCaM-CA-Ng.loop2.water4.frame693 

   -2  1 
C         67.08697       81.57297       96.64385
C         66.59042       82.31429       97.85126
O         65.94508       83.34260       97.70488
H         68.19510       81.49760       96.68357
H         66.65578       80.55048       96.62837
H         66.80306       82.09968       95.70804
N         66.89371       81.85471       99.09513
C         66.50020       82.54476      100.31683
C         64.99795       82.46124      100.53800
O         64.45998       81.36382      100.58455
C         67.23871       81.93973      101.52715
C         66.96442       82.71681      102.78689
O         67.26114       83.89952      102.85679
O         66.39559       82.11045      103.84548
H         67.47759       81.00618       99.16753
H         66.83444       83.60442      100.24195
H         68.33404       81.97230      101.33872
H         66.94084       80.87701      101.66286
N         64.27313       83.59338      100.75884
C         62.84490       83.58272      101.08268
C         62.01130       83.12792       99.88070
O         62.56843       83.05412       98.79406
C         62.45497       85.00640      101.52624
H         64.77911       84.49309      100.76254
H         62.69609       82.89027      101.93807
H         61.41541       85.11977      101.86030
H         63.08900       85.30567      102.38833
H         62.62278       85.72580      100.69707
N         60.67600       82.82043       99.93767
C         59.85178       82.76841      101.14678
C         60.25098       81.62653      102.07045
O         61.04771       80.77795      101.69183
C         58.34774       82.68385      100.77549
C         57.98254       81.46467       99.97231
O         58.12775       80.23781      100.50070
O         57.52517       81.58487       98.84658
H         60.21800       82.60241       99.03835
H         59.94790       83.70992      101.69992
H         58.08843       83.59223      100.18795
H         57.72181       82.69638      101.69308
N         59.69297       81.54392      103.31141
C         59.91347       80.44180      104.23220
C         61.34368       80.28449      104.70950
O         62.19815       81.06901      104.32449
H         59.02996       82.27659      103.60630
H         59.60398       79.50598      103.73402
H         59.27200       80.60229      105.12593
N         61.70345       79.27816      105.56516
C         60.77357       78.28752      106.10958
C         61.10205       76.86802      105.66711
O         60.41807       75.96326      106.12588
C         60.69786       78.39829      107.65254
C         61.91626       77.88840      108.38946
N         61.80253       76.85817      109.26394
O         63.00543       78.41071      108.21129
H         62.69401       79.21920      105.84776
H         59.74250       78.48128      105.75978
H         59.81669       77.80862      107.98915
H         60.50452       79.45540      107.93648
H         60.89197       76.40676      109.43864
H         62.62582       76.50835      109.77563
N         62.11910       76.57945      104.79521
C         62.50389       75.21114      104.48400
C         61.78608       74.61624      103.28673
O         62.45879       74.07905      102.41846
H         62.72129       77.33316      104.43591
H         62.32424       74.56568      105.37040
H         63.60261       75.17261      104.31146
N         60.42309       74.60339      103.20594
C         59.67537       73.84708      102.19459
C         60.00426       74.25890      100.75889
O         60.74754       75.20696      100.54807
C         58.14477       73.92324      102.46596
C         57.76422       73.34165      103.83742
O         57.71181       75.25409      102.38004
H         59.89733       75.09716      103.93475
H         59.97919       72.78092      102.28966
H         57.62146       73.31093      101.69825
H         56.72982       75.23370      102.23401
H         58.21070       73.91340      104.67603
H         56.66139       73.37338      103.96372
H         58.09529       72.28467      103.91044
N         59.49983       73.53612       99.71447
C         59.84561       73.75264       98.31214
C         58.62869       74.22558       97.54340
O         57.60238       73.55787       97.54725
C         60.45170       72.45133       97.70167
C         60.62367       72.57253       96.15963
C         61.80148       72.15624       98.38599
C         61.16122       71.30898       95.48658
H         58.85924       72.75375       99.91876
H         60.62157       74.53433       98.21676
H         59.75203       71.60787       97.89643
H         61.28746       73.42748       95.91161
H         59.62915       72.75766       95.70008
H         62.52616       72.97352       98.17376
H         61.67801       72.07079       99.48524
H         62.23351       71.19851       98.03522
H         60.50992       70.44001       95.72029
H         61.17021       71.45595       94.38564
H         62.20088       71.09310       95.80264
N         58.71808       75.36767       96.80473
C         57.65157       75.91285       95.98128
C         58.01731       75.90634       94.50238
O         57.18499       76.33422       93.71723
C         57.35649       77.34410       96.46173
C         56.72717       77.32056       97.82628
O         57.38446       77.78279       98.90481
O         55.60491       76.86085       97.96526
H         59.61098       75.88635       96.80492
H         56.72469       75.30191       96.06359
H         56.65384       77.86839       95.77886
H         58.30751       77.91952       96.47186
N         59.20235       75.39667       94.03301
C         59.50947       75.29421       92.61137
C         60.83216       76.00943       92.30924
O         61.73538       75.37807       91.78727
C         59.58615       73.78017       92.26982
C         59.67980       73.37409       90.80998
C         59.34239       74.22565       89.73692
C         60.08851       72.05817       90.52337
C         59.41019       73.76060       88.41777
C         60.17090       71.60556       89.20398
C         59.82711       72.45446       88.15163
H         59.89654       75.01641       94.68826
H         58.69952       75.75726       92.01449
H         58.69014       73.26101       92.67530
H         60.46400       73.36909       92.81684
H         59.00487       75.23783       89.89907
H         60.35265       71.38090       91.32669
H         59.13386       74.41239       87.59887
H         60.49583       70.59339       88.99866
H         59.88031       72.09830       87.13058
N         61.03676       77.33286       92.61846
C         62.28514       78.04091       92.34366
C         63.52862       77.42346       92.95724
O         64.62184       77.82116       92.57118
C         62.06614       79.41278       92.99490
C         60.57778       79.60510       92.83822
C         60.04322       78.21617       93.18042
H         62.38457       78.09538       91.23694
H         62.24621       79.33155       94.09315
H         62.71121       80.22474       92.59636
H         60.13898       80.42925       93.43946
H         60.38623       79.80079       91.75890
H         59.99772       78.04367       94.27853
H         59.04080       78.10547       92.71548
N         63.45555       76.51635       93.97198
C         64.63591       75.93855       94.59092
C         65.29700       74.99790       93.60245
O         66.48828       75.13390       93.36524
C         64.31650       75.22514       95.92707
C         64.00342       76.18782       97.10248
C         62.64932       76.84177       97.10650
O         61.82598       76.63602       98.14851
O         62.31831       77.62495       96.23480
H         62.53208       76.23110       94.32817
H         65.36173       76.74055       94.85862
H         65.25946       74.71792       96.23120
H         63.53832       74.43988       95.81921
H         64.78195       76.97996       97.15466
H         64.07276       75.59661       98.04098
N         64.56156       74.05583       92.94487
C         65.11534       73.17046       91.93914
H         66.21477       73.28323       91.83193
H         64.89367       72.11805       92.21007
H         64.64656       73.39440       90.95685
H         63.54987       73.98874       93.12782
Ca        59.57567       78.31935       98.86868
O         59.91802       80.23960       96.61560
H         60.44349       79.41003       96.49373
H         60.55625       80.87738       97.02192
O         62.38550       77.50011      101.48409
H         63.08694       78.11999      101.80569
H         62.88711       76.71753      101.14298
O         62.21724       79.77620       99.00890
H         62.71128       80.34800       98.37012
H         62.91703       79.40911       99.60367
O         58.62879       77.89038      102.13401
H         57.87809       78.20387      102.69891
H         58.19309       77.56839      101.30779

Ca 1.0



