%chk=apoCaM-CA-Ng.loop1.water5.frame618.chk
%nprocshared=20
%mem=10GB
%nosave
#b3lyp/svp scf=(tight,noincore,xqc) Test 
#IOP(5/87=12) Density=Current Pop=(MK,readradii) iop(6/33=2) iop(6/42=6)

apoCaM-CA-Ng.loop1.water5.frame618 

   0  1 
C         65.48788       18.25211       93.76136
C         64.83651       19.30027       94.61861
O         64.36879       20.30333       94.10027
H         66.54661       18.12308       94.07222
H         64.95772       17.28423       93.89136
H         65.46099       18.53453       92.68792
N         64.76038       19.10789       95.96286
C         64.13294       20.04667       96.89545
C         64.83833       21.40264       96.94343
O         65.82345       21.60579       96.24825
C         64.02046       19.40991       98.30410
C         65.33782       19.09640       98.96113
O         65.64622       19.63398      100.15236
O         66.11168       18.29873       98.45883
H         65.12968       18.21548       96.31868
H         63.09067       20.22484       96.54935
H         63.44054       18.46582       98.21981
H         63.44023       20.07699       98.97441
N         64.35304       22.39067       97.75331
C         64.87570       23.75596       97.79548
C         66.36792       23.84216       98.05653
O         66.96943       24.80813       97.60643
C         64.09604       24.61741       98.82239
C         64.28185       24.14432      100.28231
C         63.40457       24.95557      101.24971
C         63.50759       24.47767      102.71117
N         64.83379       24.70691      103.28690
H         63.52817       22.17732       98.33074
H         64.70250       24.19249       96.78589
H         63.01665       24.57796       98.55707
H         64.42520       25.67743       98.74500
H         65.35005       24.25015      100.56093
H         63.99664       23.07514      100.37350
H         62.34455       24.83534      100.93582
H         63.66374       26.03497      101.19328
H         63.24814       23.39730      102.77680
H         62.76150       25.04200      103.31339
H         65.07624       25.72299      103.24002
H         64.82488       24.40921      104.28944
H         65.55718       24.14619      102.78844
N         67.02533       22.90697       98.80049
C         68.45943       22.97197       99.06201
C         69.13958       21.69871       98.56760
O         68.53297       20.64159       98.66479
C         68.71805       23.25941      100.55821
C         68.31434       22.15807      101.49348
O         67.34086       22.35743      102.40044
O         68.91766       21.09958      101.48276
H         66.48844       22.12968       99.21332
H         68.89681       23.84193       98.53656
H         68.16087       24.18501      100.82276
H         69.79636       23.46145      100.72821
N         70.41388       21.67237       98.07947
C         71.26897       22.83720       97.96041
C         70.88061       23.75224       96.82147
O         69.99017       23.44243       96.04113
H         70.82433       20.75723       97.83577
H         72.30933       22.50561       97.75139
H         71.28473       23.38316       98.92558
N         71.56049       24.92067       96.67545
C         71.35281       25.86125       95.58025
C         71.70777       25.22111       94.24856
O         72.76781       24.61834       94.14495
C         72.16573       27.16241       95.79232
C         73.66629       26.99215       95.81270
O         74.35182       27.55357       94.97369
O         74.26875       26.26330       96.77133
H         72.25861       25.14418       97.39776
H         70.28515       26.17630       95.57210
H         71.85014       27.63479       96.74780
H         71.89831       27.86421       94.97074
N         70.88230       25.35978       93.17083
C         71.17278       24.78359       91.86369
C         70.02892       23.96939       91.28801
O         70.20601       23.43485       90.20226
H         70.04548       25.95390       93.26754
H         72.07678       24.14037       91.90378
H         71.37987       25.60997       91.15134
N         68.81520       23.86531       91.90458
C         67.69415       23.14744       91.30848
C         67.97412       21.65260       91.24760
O         68.28793       21.04614       92.26274
C         66.35202       23.48288       92.01088
C         66.25460       23.05912       93.47894
O         66.13910       24.87017       91.91910
H         68.65649       24.35775       92.79109
H         67.55115       23.53232       90.27253
H         65.55338       22.94641       91.44293
H         65.15879       25.01757       91.86480
H         66.36720       21.96325       93.57812
H         67.01640       23.56563       94.10461
H         65.25159       23.33537       93.86993
N         67.84642       20.99264       90.06491
C         68.08806       19.56469       89.89358
C         69.58371       19.30742       89.90439
O         70.01912       18.44403       90.65131
C         67.39408       19.04543       88.59095
C         65.84619       18.94333       88.75852
C         67.89304       17.63807       88.19993
C         65.11462       20.23125       89.13533
H         67.53198       21.53265       89.24389
H         67.62617       18.98273       90.72473
H         67.64448       19.72185       87.74363
H         65.60929       18.18683       89.54051
H         65.41163       18.58625       87.79936
H         67.38090       17.28936       87.27718
H         68.98095       17.64457       87.97994
H         67.69569       16.90782       89.01418
H         65.30390       21.02347       88.38241
H         64.02308       20.03102       89.17591
H         65.40865       20.57896       90.14605
N         70.43022       20.03354       89.11537
C         71.87133       19.78576       89.06602
C         72.33346       19.66280       87.61733
O         71.57452       19.94917       86.70464
C         72.62666       20.92065       89.80949
C         72.20301       20.98865       91.28320
O         74.01247       20.69736       89.76077
H         70.04595       20.81247       88.56033
H         72.10935       18.82457       89.57155
H         72.38735       21.88679       89.30656
H         74.45534       21.56146       89.96860
H         72.42785       20.02709       91.79240
H         72.75918       21.79774       91.80034
H         71.11926       21.19920       91.38003
N         73.59605       19.22109       87.35122
C         74.17318       19.13924       86.01494
C         74.44739       17.69005       85.65330
O         74.02673       17.26419       84.58401
C         75.45464       20.01022       85.96207
C         76.05867       20.06257       84.55282
O         76.41343       19.53064       86.86992
H         74.18591       18.93241       88.14196
H         73.47354       19.55660       85.25617
H         75.15442       21.04674       86.24705
H         77.02310       20.28684       87.07518
H         75.31702       20.46703       83.83149
H         76.94640       20.73052       84.54942
H         76.37816       19.05304       84.21863
N         75.13145       16.86616       86.49597
C         75.48092       15.49561       86.15285
C         75.70849       14.67617       87.40954
O         76.51063       15.06642       88.24943
C         76.74631       15.50331       85.27242
C         77.16854       14.08876       84.84004
C         78.44239       14.13443       83.99069
C         78.87521       12.72448       83.56825
N         80.10484       12.77234       82.77821
H         75.43063       17.22886       87.41347
H         74.64972       15.02806       85.57757
H         77.57798       15.98101       85.83659
H         76.55118       16.11049       84.36146
H         76.34507       13.62018       84.25741
H         77.36910       13.46442       85.73790
H         79.25861       14.60157       84.58471
H         78.26111       14.75115       83.08344
H         78.06767       12.25279       82.96514
H         79.04772       12.09982       84.47334
H         80.88038       13.18399       83.34692
H         80.37049       11.80073       82.49808
H         79.95693       13.34581       81.91616
N         75.07694       13.47905       87.56458
C         75.31644       12.60612       88.70229
C         74.71726       13.18917       89.98055
O         75.48113       13.39537       90.91219
C         74.86879       11.16222       88.38212
C         75.26023       10.16966       89.49072
C         74.96804        8.73667       89.12654
O         74.46777        8.44228       88.05139
O         75.28040        7.75920       89.99785
H         74.46682       13.14078       86.80327
H         76.42054       12.52023       88.83381
H         75.39673       10.85815       87.45021
H         73.78631       11.09143       88.17885
H         74.71274       10.41922       90.42432
H         76.35179       10.25131       89.68435
N         73.39901       13.51550       90.14293
C         72.36913       13.38524       89.13384
H         71.40582       13.76700       89.53498
H         72.62169       13.98667       88.23753
H         72.20340       12.32758       88.86626
H         73.10886       13.91432       91.04990
Ca        67.50395       18.79913      101.11229
O         68.04390       17.95131      103.86022
H         68.97626       18.28210      103.81929
H         68.10101       17.00929      103.56026
O         70.59090       18.49002      101.08579
H         70.88773       17.83457      100.40604
H         70.85180       18.08540      101.95084
O         67.85416       15.79689      100.18740
H         67.55639       15.39408      101.04136
H         68.70126       15.33050       99.97530
O         65.24484       16.85903      101.66947
H         64.47169       17.41348      101.39611
H         65.29337       16.96625      102.65245
O         69.15651       17.73900       98.08151
H         69.43488       16.92022       97.60010
H         69.92967       18.35109       97.99572

Ca 1.0



