%chk=apoCaM-CA-Ng.loop2.water4.frame98.chk
%nprocshared=20
%mem=10GB
%nosave
#b3lyp/svp scf=(tight,noincore,xqc) Test 
#IOP(5/87=12) Density=Current Pop=(MK,readradii) iop(6/33=2) iop(6/42=6)

apoCaM-CA-Ng.loop2.water4.frame98 

   -2  1 
C         45.51888       26.56867       92.31586
C         46.58420       25.58842       91.94440
O         47.66482       26.00809       91.55082
H         44.60414       26.05809       92.67679
H         45.88586       27.28175       93.08039
H         45.23823       27.13028       91.41614
N         46.34079       24.24996       92.01805
C         47.29412       23.26852       91.54119
C         47.44604       23.40514       90.05476
O         48.57591       23.42842       89.66007
C         46.92492       21.83232       91.94320
C         47.91186       20.82361       91.39917
O         48.92092       20.37054       92.16841
O         47.79563       20.40802       90.25650
H         45.42919       23.92037       92.36748
H         48.28353       23.45222       92.03112
H         45.90267       21.55612       91.61894
H         46.97053       21.79576       93.05334
N         46.40172       23.53754       89.18133
C         46.54028       23.70719       87.72506
C         47.69326       24.64273       87.34935
O         47.67968       25.76890       87.82504
C         46.61867       22.34360       87.03975
H         45.44931       23.57449       89.57238
H         45.59669       24.16356       87.35324
H         47.54406       21.80702       87.33445
H         45.73963       21.72795       87.31707
H         46.59885       22.48375       85.93491
N         48.73222       24.24834       86.53364
C         49.90572       25.07654       86.26810
C         51.16752       24.36983       86.77533
O         52.21280       24.37988       86.14204
C         49.92094       25.50578       84.78929
C         48.63361       26.24862       84.48882
O         48.12975       27.11033       85.39922
O         47.95782       25.94583       83.51961
H         48.74002       23.31499       86.10382
H         49.84511       26.00633       86.87170
H         50.01616       24.62109       84.11698
H         50.79074       26.17187       84.60673
N         51.09174       23.76307       87.99070
C         52.14749       23.17700       88.79060
C         53.01735       24.25850       89.37345
O         54.11067       23.96413       89.83305
H         50.19549       23.77939       88.41339
H         52.72059       22.46189       88.17023
H         51.70242       22.62062       89.65027
N         52.59824       25.55364       89.34292
C         53.46653       26.68431       89.57244
C         54.03074       26.77987       90.96210
O         53.31943       26.62766       91.94721
C         52.75610       27.99324       89.18148
C         52.53760       28.03650       87.68053
N         51.31358       28.23248       87.15069
O         53.49322       27.90152       86.93163
H         51.63788       25.76940       89.03817
H         54.32918       26.58353       88.88274
H         53.40760       28.85291       89.44177
H         51.80286       28.09225       89.74949
H         50.50860       28.37910       87.75318
H         51.16959       28.25662       86.13138
N         55.32691       27.18451       91.07851
C         55.92380       27.56979       92.32911
C         55.75439       29.05295       92.54791
O         55.50454       29.79987       91.61019
H         55.85475       27.41478       90.22314
H         57.01434       27.35071       92.29928
H         55.49896       26.98199       93.17001
N         55.94593       29.54708       93.79361
C         55.96007       30.97489       94.11056
C         54.58108       31.62055       94.03666
O         54.50330       32.84025       94.09353
C         56.64772       31.19748       95.48192
C         55.86426       30.58560       96.65652
O         57.97376       30.71315       95.46314
H         56.15912       28.85495       94.52411
H         56.60005       31.47462       93.34938
H         56.72829       32.28962       95.66698
H         58.00686       29.80969       95.05772
H         56.48325       30.61286       97.57566
H         54.93928       31.16916       96.83540
H         55.56888       29.53148       96.48261
N         53.45650       30.86218       93.90153
C         52.12707       31.39999       93.63304
C         51.60111       30.77701       92.35024
O         52.02473       29.68525       91.99244
C         51.12900       31.25706       94.82590
C         50.60823       29.82711       95.13335
C         51.67999       31.93677       96.09511
C         51.64874       28.75368       95.43959
H         53.56857       29.84931       93.92391
H         52.22110       32.48583       93.46333
H         50.21211       31.83110       94.55737
H         49.99336       29.46796       94.28111
H         49.93081       29.90427       96.01264
H         52.63419       31.48139       96.42267
H         51.84497       33.02103       95.91227
H         50.95093       31.85210       96.93070
H         52.35329       29.07809       96.23353
H         51.12919       27.83313       95.77271
H         52.18521       28.46082       94.52124
N         50.68434       31.43055       91.59140
C         50.15760       30.88787       90.34687
C         49.89321       32.04493       89.40475
O         50.58550       32.16520       88.40291
C         48.91145       30.03206       90.67261
C         48.34263       29.32054       89.48430
O         48.80066       28.23490       89.18373
O         47.26671       29.75870       88.80709
H         50.37196       32.36248       91.90033
H         50.93083       30.24592       89.86277
H         48.13618       30.63697       91.18032
H         49.21619       29.24021       91.39493
N         48.93924       32.97367       89.70082
C         48.74571       34.19305       88.92323
C         47.43647       34.89855       89.24519
O         47.11701       35.05495       90.41440
C         49.93554       35.17135       89.08488
C         50.64832       35.13179       90.42239
C         50.14185       35.74870       91.58144
C         51.88487       34.46350       90.49167
C         50.87858       35.70679       92.77599
C         52.60523       34.41477       91.68060
C         52.10829       35.04318       92.82244
H         48.35797       32.82731       90.53797
H         48.69239       33.90583       87.85467
H         49.65519       36.21441       88.81260
H         50.67707       34.87381       88.31657
H         49.19900       36.27818       91.56281
H         52.29087       33.96559       89.62025
H         50.50422       36.19215       93.66818
H         53.54884       33.88512       91.71097
H         52.67702       35.00792       93.74305
N         46.65531       35.43397       88.24464
C         45.42850       36.18857       88.47579
C         44.35278       35.38279       89.20313
O         43.51456       35.97218       89.86887
C         44.95137       36.55966       87.05824
C         46.23784       36.60019       86.26084
C         47.01731       35.43107       86.83812
H         45.71185       37.09211       89.05952
H         44.35874       35.72083       86.63244
H         44.35166       37.49484       87.00006
H         46.12050       36.56093       85.15497
H         46.77710       37.53611       86.52960
H         46.71643       34.45602       86.39570
H         48.09413       35.64234       86.65402
N         44.31810       34.02283       89.09938
C         43.36564       33.15165       89.79528
C         43.55564       33.27189       91.29385
O         42.57031       33.39128       92.00862
C         43.58214       31.68237       89.35522
C         43.25991       31.51289       87.85772
C         43.82773       30.24811       87.29814
O         43.12225       29.10559       87.35091
O         44.86059       30.28972       86.64876
H         45.03027       33.57567       88.50337
H         42.31720       33.42119       89.53236
H         42.93551       30.98444       89.93612
H         44.64259       31.41431       89.55864
H         43.70539       32.33771       87.26921
H         42.16337       31.55942       87.67841
N         44.80698       33.24500       91.83438
C         45.07445       33.36630       93.25280
H         45.77568       34.21005       93.43212
H         44.15354       33.55070       93.84507
H         45.54709       32.42820       93.60720
H         45.62001       33.14291       91.21063
Ca        47.19717       28.57426       86.86844
O         45.12856       26.68404       85.93316
H         44.84334       26.37342       86.82696
H         45.11109       25.86659       85.37689
O         46.75596       29.63134       84.32752
H         46.35582       30.49122       84.04646
H         47.33064       29.35213       83.57230
O         45.32722       27.52661       88.97939
H         45.61425       28.22733       89.61174
H         44.36687       27.71288       88.85240
O         48.44904       30.80785       86.32380
H         48.68316       31.15480       85.43060
H         49.25809       30.93561       86.86947

Ca 1.0



