%chk=apoCaM-CA-Ng.loop1.water5.frame654.chk
%nprocshared=20
%mem=10GB
%nosave
#b3lyp/svp scf=(tight,noincore,xqc) Test 
#IOP(5/87=12) Density=Current Pop=(MK,readradii) iop(6/33=2) iop(6/42=6)

apoCaM-CA-Ng.loop1.water5.frame654 

   0  1 
C         -7.62906       26.19974        4.44905
C         -9.04230       25.82736        4.10875
O         -9.64558       26.48635        3.27488
H         -7.00012       26.13480        3.53713
H         -7.60230       27.23478        4.84671
H         -7.20235       25.51725        5.21568
N         -9.63028       24.76493        4.71998
C        -10.99124       24.31439        4.45020
C        -11.84071       24.40643        5.70992
O        -11.31792       24.28185        6.80827
C        -10.97835       22.92637        3.77730
C        -10.22701       21.84007        4.49861
O        -10.11921       20.74306        3.97435
O         -9.75553       22.01793        5.74397
H         -9.07345       24.24745        5.41265
H        -11.47077       24.98352        3.70242
H        -10.48133       23.05140        2.79174
H        -12.02348       22.59101        3.59171
N        -13.13725       24.81669        5.61415
C        -13.92862       25.23030        6.77113
C        -14.43119       24.05950        7.61861
O        -14.97519       24.32592        8.67805
C        -15.06067       26.16882        6.26087
C        -15.78923       27.01160        7.32580
C        -16.63595       28.10738        6.63769
C        -17.33999       29.08634        7.59716
N        -16.39772       29.89372        8.37528
H        -13.51723       24.98794        4.66963
H        -13.27077       25.86279        7.40671
H        -15.79362       25.60471        5.64327
H        -14.55413       26.90326        5.59379
H        -15.02640       27.49895        7.95096
H        -16.42529       26.37436        7.97470
H        -17.41222       27.61360        6.01461
H        -15.98865       28.71016        5.96140
H        -18.02095       28.53567        8.28054
H        -17.95730       29.77665        6.97883
H        -15.88077       29.29465        9.05294
H        -15.72993       30.39163        7.74239
H        -16.92935       30.60952        8.92151
N        -14.32892       22.75157        7.21901
C        -14.93418       21.64890        7.97234
C        -14.16710       21.24834        9.23439
O        -12.98991       20.95621        9.13270
C        -15.19177       20.40335        7.08867
C        -14.06798       19.55948        6.52934
O        -14.38251       18.54131        5.93518
O        -12.75363       19.82608        6.62540
H        -13.93063       22.54477        6.29179
H        -15.96496       21.96382        8.23333
H        -15.83045       20.71075        6.23249
H        -15.79061       19.70513        7.71489
N        -14.75120       21.08745       10.45793
C        -16.13552       21.37273       10.77816
C        -16.30976       22.85511       10.92319
O        -17.11752       23.45055       10.22426
H        -14.16930       20.70429       11.22029
H        -16.37200       20.93311       11.77192
H        -16.82028       20.90062       10.04144
N        -15.55488       23.50869       11.84940
C        -15.57577       24.94226       12.08049
C        -14.16922       25.48103       11.89623
O        -13.25391       24.99242       12.55035
C        -16.08124       25.21380       13.50620
C        -16.14481       26.68654       13.80141
O        -16.85360       27.41971       13.12986
O        -15.41846       27.20350       14.81024
H        -14.91508       22.94708       12.43521
H        -16.27231       25.44451       11.37155
H        -15.41380       24.71417       14.24269
H        -17.10122       24.78634       13.61899
N        -13.91655       26.49209       11.02521
C        -12.56287       26.97560       10.79290
C        -12.50043       28.11655        9.80981
O        -13.53057       28.66896        9.45476
H        -14.71168       26.90032       10.50892
H        -11.97480       26.13503       10.37236
H        -12.09143       27.30275       11.74537
N        -11.30129       28.53550        9.32692
C        -11.16567       29.56701        8.29522
C         -9.72287       30.01738        8.12038
O         -8.81558       29.49036        8.75673
C        -11.71230       29.06768        6.91148
C        -11.01127       27.78973        6.44426
O        -13.09017       28.83164        6.95178
H        -10.45646       28.07827        9.70753
H        -11.72430       30.47418        8.61938
H        -11.53149       29.82483        6.11710
H        -13.53533       29.71763        6.89533
H        -11.16462       26.97262        7.17764
H        -11.42819       27.47171        5.46509
H         -9.92146       27.95897        6.32167
N         -9.44585       31.01098        7.23657
C         -8.10581       31.50854        6.97266
C         -7.61753       32.21012        8.22680
O         -6.60183       31.80113        8.76619
C         -8.11517       32.40926        5.70023
C         -8.56788       31.55987        4.47118
C         -6.72370       33.01792        5.44594
C         -8.86209       32.38553        3.21999
H        -10.23377       31.44082        6.72744
H         -7.43252       30.64892        6.74424
H         -8.84149       33.23635        5.86033
H         -9.51161       31.02112        4.69266
H         -7.80046       30.78772        4.24089
H         -6.73284       33.68383        4.56047
H         -6.40292       33.63660        6.30912
H         -5.97186       32.21560        5.28312
H         -9.67173       33.11570        3.43365
H         -7.96474       32.92019        2.85456
H         -9.20986       31.70767        2.41075
N         -8.32209       33.25340        8.75927
C         -7.98802       33.89364       10.03287
C         -8.79298       35.17171       10.23384
O        -10.00913       35.16410       10.11136
C         -8.19561       32.95828       11.26216
C         -9.60311       32.36074       11.35481
O         -7.26906       31.90628       11.25991
H         -9.14361       33.59556        8.23825
H         -6.91436       34.18278       10.01568
H         -8.03538       33.55865       12.19059
H         -6.39815       32.29086       11.54527
H         -9.81766       31.73175       10.46669
H         -9.67337       31.72490       12.26242
H        -10.37814       33.14694       11.43988
N         -8.13694       36.31416       10.57684
C         -8.77254       37.60482       10.81993
C         -7.66505       38.63020       11.01493
O         -7.54795       39.53578       10.20151
C         -9.78029       37.55304       12.01595
C        -10.43276       38.91275       12.28399
O         -9.16409       37.11218       13.19897
H         -7.10997       36.26019       10.66350
H         -9.34292       37.89115        9.90778
H        -10.62098       36.86703       11.76381
H         -9.25176       36.12367       13.22928
H         -9.67218       39.66642       12.57927
H        -10.96882       39.27015       11.37985
H        -11.16710       38.82097       13.11390
N         -6.79507       38.52055       12.05886
C         -5.66446       39.40801       12.27381
C         -4.42177       38.58191       12.55043
O         -4.44958       37.76159       13.45933
C         -5.97581       40.32567       13.46401
C         -4.84480       41.34079       13.72020
C         -5.21858       42.38689       14.77876
C         -5.46585       41.78447       16.17012
N         -5.82444       42.82904       17.12744
H         -6.94157       37.77544       12.75389
H         -5.50355       40.06907       11.39327
H         -6.16248       39.70802       14.36733
H         -6.90495       40.88777       13.22178
H         -4.63953       41.88918       12.77424
H         -3.91219       40.81574       14.02243
H         -6.12629       42.93233       14.44008
H         -4.38337       43.11758       14.85159
H         -4.54606       41.26217       16.51566
H         -6.29588       41.04849       16.13205
H         -5.05384       43.53179       17.20241
H         -6.70624       43.30255       16.82233
H         -5.98303       42.39384       18.06462
N         -3.26731       38.79608       11.85967
C         -2.03235       38.10008       12.20224
C         -2.10961       36.61767       11.84267
O         -2.00130       35.81584       12.75963
C         -0.78340       38.81072       11.63540
C         -0.64481       40.23446       12.20628
C          0.62988       40.87952       11.74748
O          0.59822       41.91127       11.09624
O          1.81743       40.33314       12.07246
H         -3.25091       39.53267       11.13828
H         -1.89761       38.16642       13.30773
H         -0.80242       38.87932       10.53478
H          0.11070       38.22202       11.93949
H         -0.63342       40.19987       13.31710
H         -1.50969       40.85551       11.88729
N         -2.31444       36.12825       10.58327
C         -2.48342       36.92571        9.38835
H         -3.34440       37.61524        9.49604
H         -1.55808       37.47717        9.14755
H         -2.68281       36.25777        8.52324
H         -2.37232       35.10392       10.46788
Ca       -11.39184       21.51755        7.13505
O        -11.00539       23.76318        9.78456
H        -11.52144       23.63548       10.61966
H        -10.28221       24.39229       10.03391
O         -9.71805       21.19824       10.58224
H        -10.37356       20.96534       11.28681
H         -8.83686       20.98852       10.98182
O         -8.10035       20.40774        7.89321
H         -7.64137       20.57625        7.03227
H         -7.54922       20.88297        8.56456
O         -8.40452       23.68748        8.09512
H         -8.65254       24.62818        7.90998
H         -7.59762       23.52966        7.54382
O        -10.84000       18.82493        8.74972
H        -11.70602       18.57501        9.15958
H        -10.16065       18.53435        9.40813

Ca 1.0



