%chk=apoCaM-CA-Ng.loop3.water4.frame608.chk
%nprocshared=20
%mem=10GB
%nosave
#b3lyp/svp scf=(tight,noincore,xqc) Test 
#IOP(5/87=12) Density=Current Pop=(MK,readradii) iop(6/33=2) iop(6/42=6)

apoCaM-CA-Ng.loop3.water4.frame608 

   0  1 
C         85.38742       40.24427       81.77215
C         86.51610       41.18445       82.08946
O         87.39373       41.36536       81.25807
H         84.83387       40.61455       80.88374
H         85.78767       39.23182       81.56098
H         84.67084       40.16909       82.61854
N         86.53688       41.84874       83.27548
C         87.56591       42.81693       83.63630
C         88.89600       42.11272       83.86927
O         88.93852       41.19249       84.67490
C         87.11081       43.57112       84.90090
C         87.89810       44.81513       85.20940
O         87.57389       45.50538       86.16213
O         88.91321       45.21703       84.42421
H         85.75320       41.69310       83.92984
H         87.63578       43.57159       82.82084
H         87.10105       42.88032       85.76974
H         86.07525       43.91368       84.72683
N         90.02658       42.50006       83.20981
C         91.32342       41.84369       83.38906
C         91.75420       41.80500       84.84691
O         92.12042       40.73677       85.31688
C         92.42639       42.46425       82.49001
C         92.80086       43.92699       82.79045
C         93.88327       44.42500       81.81943
C         94.20315       45.90643       82.05655
N         95.25736       46.37427       81.15752
H         89.95696       43.28842       82.55057
H         91.22617       40.79022       83.04098
H         92.08481       42.39342       81.43384
H         93.34566       41.84492       82.58952
H         93.19504       44.02267       83.82339
H         91.90126       44.56066       82.69308
H         93.53076       44.30275       80.77198
H         94.80549       43.81954       81.96022
H         94.52914       46.05793       83.10971
H         93.28388       46.50293       81.87352
H         94.96698       46.24578       80.16107
H         95.42605       47.39193       81.33088
H         96.14343       45.84961       81.33979
N         91.70136       42.91986       85.62865
C         92.13571       42.94303       87.02414
C         90.98321       43.12674       88.00218
O         91.24810       43.15385       89.19729
C         93.24863       44.00353       87.22577
C         92.88855       45.43816       86.92063
O         91.67606       45.78396       86.45719
O         93.72620       46.30956       87.08763
H         91.31883       43.77987       85.21324
H         92.59002       41.96660       87.29982
H         94.11118       43.73150       86.58069
H         93.58915       43.95737       88.28331
N         89.68071       43.22266       87.59929
C         88.57832       43.36747       88.54214
C         88.60386       44.67429       89.31522
O         87.78003       44.83275       90.20292
H         89.45031       43.15122       86.60134
H         88.61551       42.51736       89.25753
H         87.60824       43.31240       88.00604
N         89.51644       45.64988       89.03984
C         89.65777       46.88753       89.79284
C         89.45213       48.07637       88.86353
O         89.31999       47.87301       87.66471
C         91.08478       46.88071       90.38414
C         91.35077       48.00166       91.34908
N         92.31137       48.92038       91.09555
O         90.69618       48.07578       92.37796
H         90.17261       45.51638       88.26780
H         88.90516       46.92683       90.60919
H         91.81577       46.90517       89.54380
H         91.24660       45.92815       90.93442
H         92.87114       48.87784       90.23135
H         92.49194       49.68288       91.76466
N         89.42266       49.35818       89.33844
C         89.32187       50.50396       88.44782
C         88.04605       50.50266       87.63707
O         87.15370       49.70543       87.90017
H         89.50850       49.53583       90.34792
H         90.18839       50.46538       87.75502
H         89.38795       51.45403       89.02054
N         87.91658       51.36052       86.58653
C         86.76048       51.35747       85.68865
C         86.60404       50.00982       84.98203
O         87.37723       49.10214       85.23978
C         86.87315       52.50844       84.65705
C         86.86902       53.87507       85.30377
C         85.79689       54.26997       86.12546
C         87.91807       54.77982       85.06986
C         85.77988       55.53856       86.70854
C         87.89267       56.05481       85.64601
C         86.82280       56.43694       86.46906
O         86.78240       57.66268       87.02896
H         88.68724       52.02391       86.40544
H         85.84052       51.51173       86.28982
H         86.00150       52.49585       83.97366
H         87.78506       52.36112       84.03627
H         84.96938       53.60004       86.31778
H         88.74904       54.50592       84.43190
H         84.94964       55.82484       87.34211
H         88.70230       56.74593       85.44901
H         87.47618       58.32041       86.87972
N         85.57794       49.81407       84.09702
C         85.23232       48.54586       83.45512
C         86.36976       48.00911       82.59202
O         87.43694       47.71516       83.10950
C         84.70476       47.51417       84.50160
C         84.20000       46.23362       83.77907
C         83.57399       48.15945       85.33354
C         83.56299       45.19267       84.70552
H         84.94943       50.60233       83.89252
H         84.36800       48.75341       82.78343
H         85.52092       47.23343       85.20253
H         85.06024       45.75356       83.26463
H         83.44486       46.50370       83.00851
H         83.21491       47.47551       86.12784
H         83.93610       49.06619       85.86099
H         82.72046       48.44319       84.68125
H         83.30820       44.28498       84.11825
H         84.25209       44.91554       85.52780
H         82.61818       45.57184       85.14502
N         86.18283       47.79514       81.25893
C         87.21104       47.23913       80.38704
C         87.39803       48.03786       79.10328
O         88.15680       47.57839       78.26177
C         86.82562       45.79342       80.03101
O         85.62186       45.77303       79.31032
H         85.24674       47.96334       80.85784
H         88.18851       47.19225       80.90566
H         86.71245       45.19552       80.96111
H         87.65003       45.34261       79.42822
H         85.63419       44.94670       78.76096
N         86.73199       49.20869       78.85390
C         86.72651       49.83280       77.53249
C         87.45309       51.16627       77.51530
O         87.42051       51.86041       78.52104
C         85.28236       50.02218       77.07332
H         86.16207       49.64602       79.59152
H         87.21317       49.14616       76.82112
H         84.74162       50.70319       77.76570
H         85.25713       50.45709       76.05316
H         84.76204       49.04153       77.05504
N         88.18010       51.60149       76.43563
C         88.31838       50.89952       75.15621
C         88.20985       51.87908       73.98891
O         88.94421       52.85800       74.01082
C         89.67038       50.19600       75.12567
H         88.71645       52.47646       76.55408
H         87.56111       50.11976       75.06236
H         90.50099       50.92542       75.22264
H         89.72541       49.47460       75.96998
H         89.77932       49.63026       74.17607
N         87.34161       51.75237       72.93514
C         86.42604       50.64017       72.68397
C         85.01676       50.94987       73.16186
O         84.16947       50.07338       73.04900
C         86.43793       50.18203       71.19555
C         85.97686       51.20741       70.13566
C         87.02658       52.22657       69.79237
O         86.77190       53.54098       69.93500
O         88.10578       51.86665       69.34794
H         87.30496       52.54621       72.28334
H         86.74339       49.74209       73.24068
H         85.73375       49.32265       71.12967
H         87.43806       49.78638       70.91403
H         85.03139       51.69485       70.45755
H         85.76696       50.65823       69.19210
N         84.69125       52.14150       73.74177
C         83.36937       52.43708       74.25573
H         82.65912       51.59476       74.11753
H         83.44178       52.65204       75.34263
H         82.96312       53.32825       73.73544
H         85.40091       52.87946       73.85026
Ca        89.82202       47.23772       84.83339
O         90.28572       46.30104       81.96313
H         90.74865       46.78603       81.23544
H         89.88474       45.51134       81.52048
O         90.95286       50.03856       85.29937
H         91.86088       49.82819       85.63379
H         91.09992       50.69446       84.57314
O         89.79478       49.30238       82.42205
H         89.06370       49.77559       81.95123
H         90.62218       49.75356       82.11976
O         92.41720       47.85138       83.84206
H         92.89436       47.44197       84.60597
H         93.04875       48.52260       83.48244

Ca 1.0



