%chk=apoCaM-CA-Ng.loop3.water7.frame1149.chk
%nprocshared=20
%mem=10GB
%nosave
#b3lyp/svp scf=(tight,noincore,xqc) Test 
#IOP(5/87=12) Density=Current Pop=(MK,readradii) iop(6/33=2) iop(6/42=6)

apoCaM-CA-Ng.loop3.water7.frame1149 

   0  1 
C         59.02104       59.06568       74.82177
C         58.20498       58.57326       73.66782
O         58.63362       58.73209       72.53661
H         59.96809       59.52483       74.46208
H         58.44352       59.83328       75.37773
H         59.26437       58.22064       75.49752
N         56.99808       57.97628       73.88187
C         56.13250       57.52402       72.79593
C         54.84296       58.32663       72.79384
O         53.76371       57.75794       72.70712
C         55.91728       55.99058       72.85726
C         55.24213       55.47306       74.10724
O         54.85600       56.29822       75.09752
O         55.03831       54.27576       74.22323
H         56.67531       57.87605       74.85445
H         56.61567       57.73413       71.81690
H         56.90848       55.49469       72.77333
H         55.30738       55.68055       71.98047
N         54.90603       59.68785       72.87166
C         53.76048       60.59044       72.80645
C         53.15342       60.51463       71.42197
O         51.97065       60.24378       71.26464
C         52.73733       60.33451       73.93542
C         53.38773       60.37973       75.32660
C         52.36202       60.27356       76.47024
C         51.48910       59.00260       76.46783
N         52.28242       57.77914       76.57185
H         55.83390       60.12875       72.96479
H         54.14246       61.62908       72.92975
H         52.25260       59.34866       73.79030
H         51.94969       61.11679       73.87275
H         53.92219       61.34744       75.44425
H         54.14097       59.56795       75.41756
H         51.68444       61.15293       76.41772
H         52.91295       60.32736       77.43419
H         50.86020       58.96255       75.55263
H         50.79803       59.05900       77.33730
H         52.87055       57.66438       75.71862
H         52.88394       57.80588       77.42687
H         51.63738       56.95859       76.63527
N         53.97476       60.70604       70.35636
C         53.57937       60.53860       68.96520
C         54.29149       59.32231       68.40485
O         55.18835       58.79662       69.05269
C         53.87292       61.81087       68.12941
C         55.28999       62.30321       68.28916
O         55.65259       62.78867       69.34884
O         56.17618       62.21138       67.28433
H         54.96737       60.88808       70.55659
H         52.49139       60.31838       68.90064
H         53.19265       62.63610       68.43106
H         53.67040       61.58484       67.06022
N         53.88272       58.76393       67.22978
C         54.45900       57.53185       66.71783
C         54.26343       56.42518       67.73867
O         53.11807       56.16884       68.08222
H         53.10399       59.19455       66.70807
H         55.52084       57.71937       66.47621
H         53.94391       57.24300       65.77601
N         55.29153       55.75355       68.33809
C         56.70660       55.89763       68.00401
C         57.55476       55.19559       69.06508
O         57.33822       54.01247       69.28861
C         56.98842       55.25288       66.62623
C         58.44613       55.35861       66.24733
N         59.20726       54.24628       66.11898
O         58.94519       56.45833       66.06203
H         55.03538       55.09636       69.09277
H         56.96780       56.97178       67.97589
H         56.38695       55.72567       65.82398
H         56.68652       54.18374       66.67162
H         58.80769       53.31006       66.27982
H         60.20499       54.31996       65.87133
N         58.55790       55.81542       69.75362
C         58.96678       57.19636       69.52562
C         60.17336       57.60503       70.34203
O         60.66355       56.82097       71.14492
H         59.07023       55.24144       70.44073
H         58.12662       57.88369       69.75941
H         59.25252       57.30924       68.46061
N         60.73099       58.83760       70.15454
C         61.92819       59.27806       70.86372
C         61.69133       60.60915       71.56989
O         60.67999       61.25493       71.32959
C         63.07409       59.40399       69.83395
C         64.45369       59.41617       70.44174
C         65.28382       60.54420       70.34348
C         64.93666       58.26146       71.08132
C         66.57573       60.51599       70.88194
C         66.22911       58.23195       71.60857
C         67.05432       59.36036       71.51058
O         68.30704       59.34226       72.00886
H         60.32022       59.46222       69.44418
H         62.19887       58.51573       71.62487
H         62.89256       60.30507       69.20881
H         63.05536       58.52685       69.14981
H         64.93379       61.44306       69.85245
H         64.31783       57.37527       71.15330
H         67.20851       61.39085       70.80439
H         66.58930       57.32885       72.08553
H         68.67929       58.55633       72.43452
N         62.60154       61.08031       72.46509
C         62.48773       62.37928       73.12973
C         62.58999       63.51084       72.11919
O         63.49230       63.48716       71.29415
C         63.54420       62.53361       74.26833
C         65.01498       62.47288       73.77139
C         63.27759       63.83629       75.05615
C         66.02091       62.33875       74.91520
H         63.39220       60.46479       72.69732
H         61.49754       62.42203       73.63792
H         63.37386       61.67779       74.95905
H         65.26065       63.36945       73.16342
H         65.16864       61.58187       73.13576
H         63.45662       64.72889       74.41907
H         62.22559       63.86613       75.41165
H         63.92368       63.91373       75.95176
H         67.04463       62.24609       74.49618
H         66.00473       63.22016       75.58530
H         65.80029       61.42309       75.50566
N         61.70337       64.54965       72.15178
C         61.75750       65.68136       71.22301
C         60.60248       66.66015       71.42448
O         59.88292       66.57818       72.40892
C         63.08704       66.46252       71.37625
O         63.20643       66.95082       72.68588
H         60.96614       64.52047       72.87080
H         61.67582       65.27757       70.19413
H         63.11759       67.31335       70.66112
H         63.95513       65.81272       71.14332
H         64.12265       67.32426       72.76536
N         60.40644       67.65306       70.50895
C         59.45933       68.75574       70.64589
C         59.84965       69.62269       71.83036
O         59.00526       69.99359       72.63463
C         58.00358       68.26416       70.69978
H         61.01047       67.66842       69.67259
H         59.56735       69.39331       69.74062
H         57.30676       69.12842       70.72623
H         57.77564       67.65918       69.79938
H         57.81453       67.64404       71.60032
N         61.16766       69.92852       72.01217
C         61.71857       70.67780       73.13144
C         61.17492       70.20336       74.46850
O         60.85978       71.02972       75.31593
C         61.53076       72.18331       72.91558
H         61.85382       69.53708       71.34915
H         62.81562       70.48947       73.13719
H         60.45247       72.44665       72.89849
H         62.03338       72.75325       73.72683
H         61.99086       72.48283       71.94993
N         60.99631       68.87483       74.71779
C         60.49870       68.40284       75.99937
C         61.61056       68.58208       77.00952
O         61.42691       69.27882       77.99713
C         60.04382       66.92598       75.91640
C         59.26414       66.47688       77.16837
C         57.95168       67.20733       77.30015
O         57.69958       67.96170       78.38663
O         57.10695       67.11547       76.42254
H         61.19611       68.19157       73.97384
H         59.59745       69.00008       76.26497
H         60.92188       66.26410       75.76023
H         59.37039       66.79391       75.04188
H         59.88287       66.63395       78.07779
H         59.03806       65.39244       77.08753
N         62.82584       68.00827       76.76838
C         63.98683       68.17690       77.61394
H         64.79585       68.65535       77.02068
H         63.77715       68.81245       78.49818
H         64.33938       67.18226       77.95664
H         62.95320       67.44233       75.91512
Ca        58.31147       62.67636       67.86632
O         57.56858       61.04238       70.73965
H         58.19552       60.33816       70.44203
H         57.99950       61.44382       71.53480
O         57.86021       65.55820       68.13755
H         56.88403       65.61548       68.29252
H         58.00358       66.00518       67.26621
O         60.88791       64.25377       67.93766
H         61.81059       64.14858       67.59503
H         60.72071       65.22901       67.90687
O         58.46349       64.19422       70.79052
H         59.03671       63.92916       71.55171
H         57.54120       64.11804       71.14138
O         60.86733       61.15102       67.42871
H         61.74851       61.60101       67.41755
H         61.06958       60.20363       67.22532
O         58.15291       59.57935       67.36210
H         57.63116       59.66896       66.52611
H         57.53249       59.87462       68.07416
O         58.63374       63.20881       65.04921
H         59.60006       63.01543       65.14671
H         58.22810       62.33596       64.81628

Ca 1.0



