%chk=apoCaM-CA-Ng.loop2.water4.frame1491.chk
%nprocshared=20
%mem=10GB
%nosave
#b3lyp/svp scf=(tight,noincore,xqc) Test 
#IOP(5/87=12) Density=Current Pop=(MK,readradii) iop(6/33=2) iop(6/42=6)

apoCaM-CA-Ng.loop2.water4.frame1491 

   -2  1 
C         33.01395       86.52352       34.19945
C         34.18610       85.62313       34.46938
O         35.08595       86.03813       35.18509
H         32.08482       86.05384       34.58411
H         33.14976       87.49492       34.72148
H         32.91252       86.72117       33.11495
N         34.26584       84.35474       33.97843
C         33.25161       83.72647       33.13152
C         33.18198       84.31814       31.70183
O         32.24505       83.98182       30.99105
C         33.47493       82.18740       33.11666
C         34.84655       81.84148       32.61393
O         35.77742       81.17108       33.31088
O         35.17279       82.23454       31.52492
H         35.07674       83.79319       34.28254
H         32.25938       83.88596       33.60766
H         32.70759       81.70881       32.46721
H         33.35818       81.78038       34.14291
N         34.11519       85.19772       31.21335
C         34.02693       85.85534       29.89430
C         34.13726       84.92342       28.67404
O         34.00674       85.40321       27.55639
C         35.14536       86.90512       29.78323
H         34.90091       85.45792       31.82697
H         33.05160       86.38681       29.84407
H         36.14127       86.41023       29.82532
H         35.07068       87.47089       28.83006
H         35.07618       87.63067       30.62134
N         34.42207       83.60431       28.81297
C         34.64564       82.64124       27.74458
C         33.63206       81.49332       27.82893
O         33.04021       81.17087       26.80795
C         36.13265       82.16211       27.76510
C         36.60204       81.51499       29.05069
O         37.59018       82.04061       29.80180
O         36.07740       80.49517       29.44771
H         34.53564       83.26406       29.74817
H         34.51489       83.12372       26.74880
H         36.77341       83.05120       27.57636
H         36.29246       81.44958       26.92632
N         33.34978       80.84826       29.00533
C         32.40978       79.73860       29.11095
C         32.90430       78.46102       28.44969
O         32.13196       77.51871       28.35534
H         33.77787       81.17038       29.87768
H         31.44342       80.05276       28.66136
H         32.22507       79.50503       30.18266
N         34.17867       78.35406       27.98120
C         34.70821       77.23742       27.21783
C         35.84872       76.54452       27.96687
O         35.79740       75.33082       28.11128
C         35.14940       77.82077       25.86180
C         35.63760       76.79006       24.88341
N         36.86357       76.90353       24.32257
O         34.90748       75.86319       24.56596
H         34.81588       79.13944       28.10849
H         33.91441       76.48220       27.02037
H         35.92785       78.59917       26.02507
H         34.26803       78.32191       25.40349
H         37.48338       77.69189       24.56085
H         37.18753       76.21202       23.63122
N         36.89303       77.24538       28.49605
C         38.00373       76.59765       29.19984
C         38.91847       77.59972       29.89087
O         38.60043       78.78065       29.89969
H         36.88147       78.26831       28.39671
H         38.57878       76.00433       28.45776
H         37.61339       75.91789       29.98843
N         40.08442       77.25462       30.51269
C         40.70197       75.92937       30.55946
C         40.90039       75.44861       32.00055
O         40.74127       74.25963       32.24033
C         42.05743       76.01505       29.80497
C         42.86861       74.71018       29.81543
O         41.83957       76.42203       28.47583
H         40.61754       78.03126       30.93232
H         40.08110       75.17164       30.03490
H         42.68839       76.78948       30.29408
H         41.30666       75.71283       28.02710
H         42.29327       73.88267       29.34984
H         43.81005       74.85593       29.24243
H         43.14515       74.42582       30.85161
N         41.24100       76.30711       33.00675
C         41.48914       75.91337       34.39278
C         40.35134       76.46137       35.25045
O         40.05299       77.63858       35.10935
C         42.85796       76.50194       34.85569
C         44.03345       76.10431       33.92336
C         43.18001       76.14751       36.32143
C         44.33552       74.60425       33.85451
H         41.32031       77.31177       32.80278
H         41.54168       74.81447       34.48397
H         42.78087       77.61134       34.80331
H         44.95212       76.62760       34.26743
H         43.82078       76.46291       32.89361
H         44.13034       76.62980       36.63217
H         42.38308       76.51313       37.00231
H         43.28240       75.05294       36.46336
H         44.62946       74.20678       34.84690
H         43.46427       74.03630       33.47098
H         45.18576       74.43850       33.15985
N         39.66907       75.73082       36.18483
C         40.04061       74.38855       36.62807
C         39.70339       74.15619       38.09786
O         38.86748       74.84244       38.66769
C         39.44612       73.28359       35.72718
C         37.95592       73.41508       35.55958
O         37.14016       73.40143       36.62850
O         37.47801       73.54348       34.44354
H         38.94309       76.23464       36.71703
H         41.14259       74.31246       36.61137
H         39.68757       72.28584       36.15499
H         39.90829       73.32590       34.72095
N         40.38965       73.19498       38.77935
C         40.15391       72.83619       40.17410
C         41.40737       73.14860       40.98128
O         42.47520       72.76848       40.52153
C         39.86038       71.32438       40.25595
C         38.83574       70.89948       39.23002
C         39.21452       70.01046       38.20806
C         37.52316       71.40047       39.25211
C         38.30320       69.63770       37.21986
C         36.61064       71.01828       38.26160
C         37.00236       70.14253       37.24411
H         41.12476       72.67357       38.27686
H         39.26998       73.36598       40.57019
H         39.52823       71.05343       41.28230
H         40.80574       70.77265       40.05798
H         40.22249       69.61628       38.16547
H         37.21011       72.09165       40.02445
H         38.61092       68.96248       36.43200
H         35.60278       71.41191       38.27275
H         36.30074       69.85779       36.47125
N         41.39972       73.78989       42.19442
C         40.22573       74.13630       42.98330
C         39.35573       75.20215       42.36116
O         38.15536       74.99840       42.25103
C         40.80986       74.61734       44.32285
C         42.09611       73.81590       44.40550
C         42.60478       73.96895       42.98194
H         39.64822       73.20239       43.17277
H         41.11369       75.68679       44.25342
H         40.12197       74.50670       45.18840
H         42.80921       74.15530       45.18642
H         41.84509       72.74419       44.57898
H         42.97299       75.00970       42.83025
H         43.41935       73.24936       42.75260
N         39.90364       76.36861       41.91844
C         39.09793       77.43588       41.34210
C         38.24651       78.05671       42.44584
O         38.83933       78.59256       43.37238
C         39.99654       78.51876       40.70331
C         40.76850       77.97080       39.48869
C         41.65623       79.02060       38.88684
O         42.98550       78.81659       38.81384
O         41.17979       80.05588       38.44928
H         40.92577       76.48791       41.98445
H         38.50354       77.01449       40.51659
H         40.70973       78.91287       41.46192
H         39.35546       79.35917       40.35517
H         40.04829       77.62639       38.71506
H         41.39512       77.10473       39.78916
N         36.87906       78.04535       42.48139
C         35.98106       77.43953       41.51642
H         35.30851       78.22006       41.10477
H         36.47439       76.94050       40.67025
H         35.36203       76.67580       42.03240
H         36.42158       78.50260       43.28579
Ca        37.56381       81.13612       31.90064
O         40.39870       80.69749       32.39690
H         40.36913       81.24554       33.22117
H         40.99369       81.19898       31.78499
O         38.41862       84.07022       31.76199
H         39.25351       83.82182       32.23303
H         37.75579       84.20986       32.48423
O         35.58489       78.47665       31.67003
H         35.16978       78.21146       30.81143
H         34.82770       78.52664       32.30598
O         37.75359       79.16584       34.20046
H         36.91502       79.21054       34.72451
H         38.39043       79.73194       34.70495

Ca 1.0



