%chk=apoCaM-CA-Ng.loop4.water2.frame96.chk
%nprocshared=20
%mem=10GB
%nosave
#b3lyp/svp scf=(tight,noincore,xqc) Test 
#IOP(5/87=12) Density=Current Pop=(MK,readradii) iop(6/33=2) iop(6/42=6)

apoCaM-CA-Ng.loop4.water2.frame96 

   -3  1 
C         25.41151       50.49967       91.03675
C         24.52468       51.45624       91.76662
O         24.62460       51.53834       92.98286
H         26.08366       49.97357       91.74939
H         24.78624       49.74684       90.51424
H         26.03036       51.05096       90.29992
N         23.63194       52.23177       91.08144
C         22.73021       53.17407       91.73304
C         23.51674       54.17256       92.56119
O         23.33997       54.24498       93.76546
C         21.50971       52.44976       92.39000
C         21.74694       51.06949       92.97404
O         22.21880       50.87823       94.21819
O         21.44608       50.08800       92.31274
H         23.60996       52.17332       90.05233
H         22.25286       53.81667       90.95704
H         20.83400       52.25093       91.52705
H         20.91836       53.11512       93.05697
N         24.40889       54.98810       91.91144
C         25.19393       56.09322       92.46854
C         24.30548       57.32217       92.70178
O         24.55847       58.33272       92.05866
C         26.11854       55.66366       93.64505
C         27.05393       56.80862       94.13393
C         26.95875       54.43179       93.24995
C         28.03774       57.35655       93.08761
H         24.53666       54.82581       90.89996
H         25.88875       56.40041       91.65502
H         25.49143       55.36934       94.50650
H         27.65437       56.43082       94.99091
H         26.43911       57.65388       94.50689
H         27.58355       54.63448       92.35528
H         27.62022       54.12541       94.08774
H         26.30411       53.57169       93.01024
H         28.71563       56.56409       92.70930
H         27.50615       57.82391       92.23481
H         28.67048       58.14114       93.55270
N         23.20375       57.30390       93.51011
C         22.24831       58.40875       93.55894
C         22.86069       59.65539       94.19761
O         22.87064       60.67634       93.52492
C         20.90404       57.96644       94.19302
C         19.82765       59.00148       94.01336
O         19.49243       59.35250       92.89247
O         19.20348       59.52158       95.08652
H         22.97147       56.45641       94.03113
H         21.97829       58.64610       92.50273
H         20.99519       57.72692       95.26604
H         20.55850       57.04264       93.67735
N         23.45135       59.68987       95.43358
C         23.61177       58.54940       96.32239
C         23.45582       58.90790       97.79700
O         23.33667       60.08520       98.10421
H         23.92128       60.56812       95.70371
H         24.65198       58.18775       96.20067
H         22.94422       57.73433       96.04009
N         23.50970       57.97312       98.80277
C         23.45080       56.52378       98.62499
C         24.48204       56.02433       97.60783
O         24.08884       55.54091       96.55634
C         21.98366       56.14252       98.31490
C         21.85636       54.69263       97.98958
O         22.20584       53.82536       98.77524
O         21.47829       54.38201       96.74182
H         23.50354       58.31310       99.77683
H         23.65592       56.01414       99.59266
H         21.61124       56.71514       97.44441
H         21.33232       56.39686       99.17911
N         25.82584       56.09053       97.81294
C         26.46266       56.51805       99.04324
C         27.38000       57.68755       98.83028
O         27.49168       58.20093       97.72527
H         26.43947       55.76822       97.05195
H         27.05780       55.67083       99.44237
H         25.72597       56.80426       99.81645
N         28.05115       58.18674       99.90310
C         28.88958       59.37329       99.82887
C         30.20138       59.10416       99.09459
O         30.88957       60.07097       98.79353
C         29.20634       59.91254      101.24258
C         28.01698       60.49971      102.03932
C         26.92435       59.52843      102.41894
N         25.92282       59.23171      101.55683
O         26.91451       59.04440      103.54107
H         27.90696       57.72905      100.81515
H         28.33015       60.16518       99.28143
H         29.93001       60.75068      101.13697
H         29.70100       59.11424      101.83730
H         27.56956       61.37276      101.51750
H         28.45424       60.88853      102.98509
H         25.88676       59.65911      100.62006
H         25.17054       58.58274      101.83303
N         30.63678       57.84024       98.80279
C         31.89028       57.56374       98.09670
C         32.90341       56.81518       98.96127
O         33.98905       56.55463       98.46334
C         31.62332       56.79371       96.77431
C         30.73652       57.61252       95.82825
C         31.00528       55.41092       97.01384
H         30.07012       57.03552       99.10501
H         32.39200       58.51655       97.81613
H         32.59811       56.64150       96.25902
H         30.60808       57.07188       94.86677
H         29.73480       57.78805       96.27197
H         31.21085       58.59359       95.61315
H         31.66247       54.79457       97.66292
H         30.01236       55.50056       97.49348
H         30.87884       54.87660       96.04867
N         32.65428       56.48403      100.26413
C         33.65627       55.85789      101.12774
C         33.20100       54.56914      101.81723
O         34.08499       53.81520      102.20619
C         34.21891       56.88454      102.14876
C         33.23785       57.94897      102.60473
N         32.05097       57.63549      103.16477
O         33.52253       59.12594      102.43675
H         31.75887       56.75757      100.68607
H         34.53351       55.53066      100.52537
H         35.05014       57.43350      101.65296
H         34.66768       56.35548      103.01864
H         31.76804       56.65821      103.27272
H         31.39719       58.37774      103.45528
N         31.89695       54.26619      102.08694
C         31.50313       53.07933      102.85424
C         30.37525       52.33337      102.17046
O         29.39619       52.97592      101.82074
C         31.01198       53.48797      104.26070
C         32.05615       54.22675      105.06703
C         31.78168       55.51681      105.54767
C         33.30237       53.64216      105.35756
C         32.73921       56.22283      106.27779
C         34.25937       54.34890      106.09424
C         33.98101       55.64502      106.55245
O         34.89402       56.34211      107.25799
H         31.15873       54.93373      101.82319
H         32.35918       52.38653      103.00694
H         30.73323       52.57014      104.82397
H         30.09764       54.11337      104.15837
H         30.82617       55.98546      105.34678
H         33.53869       52.64376      105.01282
H         32.51358       57.22208      106.62784
H         35.21672       53.88974      106.30633
H         35.76547       55.98041      107.47224
N         30.39018       50.96445      102.08277
C         29.27924       50.12243      101.61842
C         29.21060       49.99484      100.10580
O         29.13700       48.87140       99.62487
C         27.90500       50.51087      102.21712
C         27.92081       50.51168      103.75407
C         26.56972       50.85998      104.30908
O         26.42132       51.94745      105.08971
O         25.60275       50.15525      104.06643
H         31.19738       50.46900      102.49218
H         29.47208       49.08884      101.99045
H         27.15392       49.76578      101.87163
H         27.56610       51.49766      101.84257
H         28.65916       51.25428      104.12210
H         28.21541       49.50796      104.12942
N         29.22794       51.08164       99.28572
C         29.09968       50.99390       97.83197
C         30.21861       50.19427       97.16693
O         30.11334       49.96054       95.96979
C         29.08643       52.40753       97.20726
C         27.93504       53.30775       97.68333
C         26.58902       52.79349       97.26577
O         26.32300       52.66249       96.08204
O         25.65744       52.50525       98.19424
H         29.31753       52.00755       99.70945
H         28.13743       50.48456       97.60290
H         29.03185       52.34007       96.09835
H         30.04778       52.89618       97.46974
H         28.07907       54.30521       97.22905
H         27.95941       53.43860       98.78403
N         31.31584       49.74635       97.84264
C         32.34674       48.97097       97.18709
H         33.14351       48.70620       97.91389
H         31.91236       48.03249       96.78017
H         32.79758       49.55947       96.36010
H         31.44495       49.95529       98.84149
Ca        22.00149       52.48187       95.73155
O         22.36481       50.38766       97.98852
H         22.69083       50.02012       98.84775
H         21.87041       51.20655       98.24250
O         24.92847       50.03243       95.97786
H         24.96285       49.63763       96.88514
H         25.85453       49.94954       95.63700

Ca 1.0



