%chk=apoCaM-CA-Ng.loop1.water3.frame1252.chk
%nprocshared=20
%mem=10GB
%nosave
#b3lyp/svp scf=(tight,noincore,xqc) Test 
#IOP(5/87=12) Density=Current Pop=(MK,readradii) iop(6/33=2) iop(6/42=6)

apoCaM-CA-Ng.loop1.water3.frame1252 

   0  1 
C         20.39039       38.92848       29.26940
C         20.91977       40.30033       29.55541
O         21.18209       41.02872       28.60866
H         19.44563       39.01002       28.69272
H         21.13580       38.36692       28.66671
H         20.19419       38.36571       30.20506
N         21.12431       40.71800       30.83937
C         21.68165       42.02509       31.16330
C         23.05701       41.86151       31.77546
O         23.35976       42.44779       32.80613
C         20.69090       42.85351       32.00889
C         20.26449       42.17535       33.28725
O         19.08877       41.90034       33.46488
O         21.16090       41.88136       34.24770
H         20.91257       40.07275       31.61543
H         21.85628       42.60405       30.23366
H         19.78718       43.03483       31.38626
H         21.13740       43.84380       32.24595
N         23.97466       41.09490       31.12690
C         25.36875       41.00223       31.53365
C         26.00175       42.38998       31.44422
O         26.53263       42.82691       32.45453
C         26.13241       39.91684       30.72732
C         25.51515       38.52498       30.98270
C         26.20228       37.41111       30.18517
C         25.52299       36.06079       30.47182
N         26.12398       34.98353       29.68751
H         23.67103       40.58983       30.28085
H         25.41739       40.66409       32.59489
H         27.19370       39.89643       31.05983
H         26.12698       40.12684       29.64088
H         24.44351       38.53016       30.69357
H         25.58237       38.29203       32.06851
H         27.27770       37.35468       30.46145
H         26.12072       37.63740       29.09950
H         24.44054       36.12802       30.21984
H         25.61332       35.82171       31.55521
H         25.63601       34.08614       29.91288
H         26.01241       35.17905       28.66612
H         27.13797       34.88704       29.92316
N         25.93148       43.20695       30.34395
C         25.31395       42.87858       29.06096
C         24.04763       43.69263       28.79815
O         23.68286       44.54388       29.59849
C         26.33977       43.06069       27.93332
C         26.78555       44.48657       27.79303
O         25.87063       45.45949       27.61104
O         27.97304       44.75550       27.78543
H         26.33135       44.15441       30.43921
H         24.99805       41.83021       29.02758
H         25.88526       42.75319       26.96869
H         27.21726       42.39896       28.10820
N         23.30514       43.42962       27.68433
C         22.03897       44.06896       27.35646
C         22.14895       45.51397       26.91356
O         23.22814       46.08036       26.88959
H         23.61227       42.66922       27.05872
H         21.33949       43.97916       28.21377
H         21.59651       43.52131       26.49649
N         21.01063       46.14709       26.49529
C         20.96322       47.51794       25.96913
C         19.78453       47.68056       24.98208
O         18.93206       46.80886       24.93382
C         20.79244       48.50396       27.15186
C         21.98056       48.53434       28.06497
O         21.84426       48.19487       29.36064
O         23.06748       48.89862       27.64467
H         20.14427       45.59206       26.51503
H         21.89559       47.70870       25.40027
H         19.88442       48.21670       27.72543
H         20.63680       49.54053       26.81904
N         19.63573       48.75863       24.14309
C         20.59424       49.83468       23.96650
C         21.87131       49.35313       23.32921
O         21.91605       48.24365       22.82029
H         18.78419       48.79995       23.56000
H         20.80329       50.33493       24.92320
H         20.17261       50.61809       23.29904
N         22.96561       50.15301       23.33581
C         24.25665       49.78548       22.75913
C         24.78819       48.46529       23.34288
O         24.84748       48.31347       24.55084
C         25.24276       50.96493       22.93980
C         26.61256       50.68274       22.32524
O         25.38511       51.27414       24.30117
H         22.87062       51.07654       23.79048
H         24.12435       49.65598       21.66184
H         24.79675       51.83864       22.40470
H         25.64745       52.23096       24.35413
H         26.51426       50.44243       21.24554
H         27.25548       51.58069       22.43251
H         27.09578       49.83468       22.84770
N         25.20096       47.47835       22.49094
C         25.70588       46.13934       22.82234
C         26.98386       46.14147       23.68717
O         26.83943       45.82719       25.03844
C         24.61670       45.18067       23.40258
C         23.37109       45.16518       22.48666
C         25.18269       43.74454       23.54851
C         22.22165       44.30331       23.01337
H         25.16526       47.69016       21.48220
H         26.02206       45.69282       21.85286
H         24.31273       45.55234       24.40604
H         23.64661       44.82375       21.46585
H         22.98844       46.19307       22.40343
H         26.07861       43.70192       24.19683
H         24.44812       43.06547       24.02292
H         25.46420       43.33842       22.55329
H         21.93506       44.62127       24.03762
H         21.34259       44.41784       22.34589
H         22.49256       43.22851       23.01980
N         28.03980       47.09710       23.37100
C         29.28335       46.86845       24.14334
C         30.30756       47.95593       23.86216
O         31.36522       47.89217       24.46958
C         29.92410       45.45123       23.94085
C         30.30753       45.14768       22.49324
O         29.07585       44.43150       24.40091
H         28.23610       47.01540       22.34781
H         29.05179       46.97027       25.22823
H         30.87165       45.40347       24.53083
H         29.18091       44.38912       25.38783
H         29.40896       45.11982       21.84400
H         31.02178       45.90549       22.11032
H         30.79609       44.15058       22.44588
N         30.07730       48.98588       22.98603
C         31.03070       50.07081       22.75603
C         31.20942       50.81695       24.07270
O         30.33904       51.58966       24.44988
C         30.51629       50.98664       21.61429
C         31.50587       52.08651       21.23895
O         30.27085       50.20134       20.47240
H         29.19200       49.01461       22.46679
H         31.99171       49.61340       22.42942
H         29.56957       51.46538       21.95943
H         29.40837       50.50266       20.08170
H         31.07002       52.70632       20.42539
H         31.71612       52.74343       22.10724
H         32.45416       51.63894       20.87323
N         32.21021       50.43069       24.91723
C         32.29562       50.75078       26.34195
C         31.04835       50.30319       27.10129
O         30.05173       49.95331       26.48773
C         32.60489       52.23092       26.61603
C         33.90648       52.67471       25.93852
C         34.32289       54.06452       26.43009
C         35.60428       54.53628       25.73411
N         36.05287       55.81489       26.28384
H         32.90738       49.75662       24.56580
H         33.14201       50.15237       26.74990
H         32.72289       52.35040       27.71556
H         31.76802       52.88350       26.28584
H         33.76456       52.67564       24.83543
H         34.72109       51.96120       26.19421
H         34.50392       54.00995       27.52693
H         33.50960       54.79801       26.23883
H         35.40912       54.64576       24.64398
H         36.40990       53.78127       25.87356
H         36.90612       56.12917       25.76813
H         35.30474       56.53814       26.18017
H         36.29446       55.70062       27.29555
N         31.05193       50.25050       28.46355
C         29.87977       49.85468       29.24393
C         29.30254       48.52729       28.77228
O         28.12484       48.52258       28.45023
C         30.15840       49.79454       30.76270
C         30.54961       51.15418       31.35584
C         30.76220       51.03351       32.83785
O         29.75354       50.63347       33.63633
O         31.84903       51.29794       33.32634
H         31.92771       50.48113       28.95419
H         29.08906       50.62696       29.09545
H         30.94856       49.05253       30.99351
H         29.22309       49.45977       31.26641
H         29.74119       51.89323       31.16885
H         31.48220       51.52660       30.88346
N         30.00101       47.35971       28.67119
C         31.40566       47.16363       28.95393
H         31.92607       48.07787       29.27745
H         31.51060       46.39579       29.74790
H         31.90774       46.79751       28.03384
H         29.49443       46.53052       28.33765
Ca        26.38931       47.38079       26.59292
O         27.16022       50.05491       26.01954
H         27.50183       50.98342       26.01871
H         27.67675       49.59372       25.31176
O         25.53723       50.44623       28.59483
H         26.03645       50.20246       29.41426
H         25.89801       51.33192       28.33860
O         25.08790       47.47470       30.10852
H         24.36678       47.24843       29.47001
H         25.24127       46.63705       30.61307

Ca 1.0



