%chk=apoCaM-CA-Ng.loop2.water3.frame515.chk
%nprocshared=20
%mem=10GB
%nosave
#b3lyp/svp scf=(tight,noincore,xqc) Test 
#IOP(5/87=12) Density=Current Pop=(MK,readradii) iop(6/33=2) iop(6/42=6)

apoCaM-CA-Ng.loop2.water3.frame515 

   -2  1 
C         74.52685       95.97795       40.69226
C         73.39426       95.67523       39.75285
O         72.88144       96.59637       39.13332
H         75.36821       96.43602       40.13253
H         74.17900       96.68873       41.47206
H         74.89399       95.05983       41.19766
N         72.92897       94.40094       39.61387
C         71.78646       94.06388       38.76370
C         72.13315       94.29744       37.28491
O         73.30009       94.48794       36.97068
C         71.39312       92.58286       39.03581
C         70.01561       92.13256       38.61756
O         69.67228       90.84360       38.79807
O         69.17519       92.91574       38.21104
H         73.37368       93.65897       40.17760
H         70.95034       94.72510       39.08181
H         71.41131       92.40591       40.13349
H         72.16280       91.92553       38.57641
N         71.16653       94.30255       36.32118
C         71.42332       94.48732       34.88802
C         72.02446       95.86866       34.60627
O         72.14437       96.63810       35.55077
C         70.09096       94.28659       34.14466
H         70.19403       94.17078       36.61475
H         72.13419       93.69784       34.56663
H         70.19105       94.28219       33.05380
H         69.66726       93.29515       34.40949
H         69.36485       95.07529       34.43583
N         72.45535       96.30821       33.38104
C         72.40690       95.60745       32.09378
C         73.14293       94.27386       32.11465
O         74.29931       94.21519       32.50522
C         72.93519       96.52042       30.95044
C         74.32526       97.02010       31.18537
O         74.53044       98.21153       31.35579
O         75.34081       96.15703       31.28912
H         72.85398       97.26173       33.37235
H         71.35749       95.43989       31.80249
H         72.26195       97.40237       30.87708
H         72.89773       95.98130       29.97900
N         72.51475       93.14990       31.66979
C         73.17647       91.86537       31.50913
C         72.61777       90.82865       32.45357
O         71.79520       91.17085       33.29119
H         71.52791       93.20621       31.37700
H         74.26850       91.93681       31.70411
H         73.03323       91.55220       30.45365
N         73.02893       89.52774       32.43060
C         73.93474       88.94824       31.44114
C         75.26050       88.52809       32.05187
O         76.07543       87.96738       31.33092
C         73.23191       87.75904       30.76101
C         71.96448       88.20337       30.07188
N         70.76199       87.71139       30.44999
O         72.02526       89.02058       29.16481
H         72.65096       88.89162       33.15091
H         74.19957       89.67572       30.64781
H         73.00693       86.98452       31.52622
H         73.89964       87.30364       29.99728
H         70.68740       87.02574       31.21526
H         69.89924       88.02264       29.97955
N         75.59215       88.83146       33.34072
C         76.91456       88.58244       33.88893
C         77.95442       89.33565       33.09063
O         78.89280       88.72650       32.59802
H         74.91766       89.31459       33.95072
H         77.12955       87.49086       33.89573
H         76.94335       88.94856       34.93812
N         77.80903       90.67553       32.89237
C         78.71567       91.49670       32.09419
C         79.28224       92.60307       32.96583
O         78.54993       93.16338       33.77030
C         77.98942       92.05941       30.85652
C         77.51846       90.93440       29.92569
O         76.89793       92.85077       31.24842
H         76.98525       91.13970       33.30704
H         79.56636       90.89228       31.70604
H         78.72896       92.67282       30.29765
H         76.62131       93.37252       30.44954
H         76.76689       90.29847       30.43007
H         77.05540       91.36371       29.01258
H         78.37886       90.30271       29.61510
N         80.60265       92.93549       32.88711
C         81.26979       93.79574       33.85828
C         81.76023       95.09735       33.23457
O         82.44414       95.08517       32.22136
C         82.43880       93.00744       34.51904
C         83.20434       93.90202       35.53455
C         81.88011       91.73764       35.19827
C         84.38602       93.20641       36.20931
H         81.18368       92.49912       32.15499
H         80.57142       94.05887       34.68353
H         83.15217       92.69403       33.72415
H         82.51100       94.27577       36.31407
H         83.62126       94.78418       35.00463
H         82.69132       91.11200       35.61830
H         81.17066       92.00885       36.00951
H         81.34808       91.09542       34.46563
H         84.90800       93.92833       36.87115
H         84.05106       92.36180       36.84342
H         85.10261       92.84047       35.44397
N         81.52940       96.25776       33.91327
C         82.04352       97.57849       33.56339
C         83.13238       97.95980       34.53732
O         84.19271       98.38466       34.10245
C         80.93569       98.63735       33.70758
C         79.73291       98.24917       32.94088
O         78.63503       97.89608       33.62133
O         79.76099       98.16678       31.72431
H         81.00756       96.18602       34.79285
H         82.43851       97.59510       32.52242
H         81.28849       99.64342       33.39275
H         80.62997       98.70703       34.77453
N         82.90856       97.85144       35.88270
C         83.83501       98.25719       36.92748
C         83.17138       98.02712       38.29675
O         83.70156       97.27452       39.09886
C         85.18925       97.50535       36.78473
C         86.21604       97.93539       37.80403
C         86.59591       99.28619       37.91507
C         86.81887       96.98257       38.64230
C         87.54928       99.67499       38.85918
C         87.78002       97.37568       39.57797
C         88.14258       98.72075       39.68877
H         82.00231       97.47276       36.18890
H         84.03078       99.34273       36.81565
H         85.64409       97.71336       35.79889
H         85.00674       96.41047       36.83903
H         86.15435      100.04110       37.27803
H         86.55094       95.93623       38.56722
H         87.83011      100.71692       38.94442
H         88.24490       96.63607       40.21615
H         88.88442       99.02344       40.41540
N         81.99053       98.64636       38.63890
C         81.36825       98.53312       39.95542
C         80.90856       97.14366       40.36566
O         80.48402       96.99674       41.50516
C         80.14373       99.45257       39.85872
C         80.61315      100.50161       38.87473
C         81.31128       99.63741       37.83202
H         82.10749       98.92450       40.69019
H         79.31185       98.90542       39.35278
H         79.77057       99.83219       40.83366
H         79.81250      101.15494       38.46815
H         81.37783      101.13263       39.38279
H         80.55531       99.12091       37.19866
H         81.98133      100.26659       37.21102
N         80.90315       96.09017       39.49930
C         80.47050       94.75834       39.89626
C         81.51690       94.19515       40.83335
O         81.19390       93.88415       41.97069
C         80.26552       93.79763       38.69260
C         78.95137       93.97904       37.89078
C         78.78787       95.19100       37.00902
O         77.75507       95.32224       36.37443
O         79.74643       96.11425       36.86627
H         81.24091       96.23242       38.54374
H         79.49086       94.81399       40.42571
H         80.16435       92.77840       39.13013
H         81.15097       93.77396       38.02949
H         78.10060       93.95067       38.60596
H         78.85430       93.09787       37.21880
N         82.80679       94.06084       40.41239
C         83.87659       93.56156       41.25094
H         84.65923       94.34313       41.34516
H         83.52616       93.29173       42.26922
H         84.32190       92.66103       40.77979
H         83.05344       94.33925       39.45040
Ca        77.02672       96.95684       32.45469
O         75.31788       96.85147       35.48845
H         75.05596       96.53926       36.39148
H         75.47300       97.82263       35.59902
O         78.92090       95.28690       30.57550
H         78.67880       94.89412       29.70081
H         78.62290       96.22555       30.49792
O         76.03732       93.21643       35.46514
H         76.44674       92.36249       35.75407
H         75.06379       93.03841       35.45795

Ca 1.0



