%chk=apoCaM-CA-Ng.loop1.water3.frame284.chk
%nprocshared=20
%mem=10GB
%nosave
#b3lyp/svp scf=(tight,noincore,xqc) Test 
#IOP(5/87=12) Density=Current Pop=(MK,readradii) iop(6/33=2) iop(6/42=6)

apoCaM-CA-Ng.loop1.water3.frame284 

   0  1 
C         49.64588       42.33573       49.40104
C         50.29712       43.68560       49.42992
O         51.31782       43.88160       48.78708
H         48.61525       42.43449       48.99665
H         50.21537       41.63186       48.75940
H         49.59034       41.92750       50.43178
N         49.72547       44.68308       50.15339
C         50.23219       46.04951       50.19254
C         51.45802       46.20600       51.09775
O         51.82866       47.34026       51.32879
C         49.11653       47.01843       50.66827
C         47.90351       47.00196       49.76795
O         47.57775       48.01038       49.16617
O         47.15046       45.89338       49.63955
H         48.84611       44.46691       50.64696
H         50.48915       46.38625       49.16250
H         49.52335       48.05612       50.66183
H         48.80481       46.77862       51.70653
N         52.13324       45.16410       51.66979
C         53.22392       45.36702       52.63121
C         54.53767       44.77214       52.13687
O         54.49802       43.64567       51.66212
C         52.83617       44.75176       53.98379
C         51.51484       45.35614       54.49358
C         51.22493       45.02796       55.96445
C         52.17298       45.72150       56.96911
N         52.08910       47.18387       56.89628
H         51.84965       44.19534       51.47106
H         53.36727       46.43515       52.84659
H         53.65804       44.97500       54.68829
H         52.73549       43.64583       53.91791
H         50.69040       44.95498       53.86423
H         51.50862       46.45607       54.36360
H         51.26786       43.92660       56.10749
H         50.19007       45.36093       56.19477
H         53.22594       45.40167       56.82291
H         51.87277       45.40163       57.99024
H         51.09577       47.49760       56.99290
H         52.64946       47.60019       57.67399
H         52.48871       47.53487       55.99853
N         55.76695       45.38318       52.25280
C         56.08131       46.67584       52.87251
C         55.64630       46.74569       54.33216
O         54.80022       47.56478       54.66126
C         55.60762       47.88474       52.02793
C         56.39344       48.06013       50.75920
O         57.39725       47.22112       50.44323
O         56.16347       49.01641       50.03776
H         56.58175       44.84822       51.91217
H         57.18526       46.80442       52.90769
H         55.79896       48.80593       52.61068
H         54.53098       47.84513       51.79485
N         56.22601       45.98483       55.30725
C         57.28059       45.01054       55.05876
C         57.84419       44.46586       56.36737
O         57.05370       44.17592       57.25411
H         55.91384       46.14563       56.27808
H         58.07323       45.52632       54.49315
H         56.86958       44.17705       54.45395
N         59.18327       44.32388       56.61997
C         60.25060       44.45492       55.62896
C         61.02688       45.74120       55.81325
O         60.88843       46.40444       56.83202
C         61.16857       43.20297       55.60909
C         61.88120       42.90659       56.90882
O         63.10048       42.93311       56.95626
O         61.19128       42.53716       58.00522
H         59.45066       44.08257       57.58425
H         59.82501       44.50255       54.61297
H         61.93144       43.34151       54.81146
H         60.56820       42.30784       55.33858
N         61.82833       46.18355       54.80274
C         62.58724       47.41811       54.85947
C         61.70383       48.63504       55.02600
O         61.87472       49.34855       56.00451
H         61.90327       45.61937       53.94188
H         63.16293       47.53644       53.91514
H         63.31644       47.35489       55.69606
N         60.76514       48.96287       54.08921
C         59.96249       50.18337       54.18743
C         59.07132       50.13118       55.41452
O         58.22659       49.25015       55.50999
C         59.10485       50.43052       52.92216
C         59.97977       50.61250       51.67502
O         58.35092       51.60241       53.11022
H         60.65531       48.34491       53.27121
H         60.65962       51.04747       54.27263
H         58.41993       49.56195       52.77848
H         57.60379       51.57745       52.45703
H         60.57600       49.70405       51.45679
H         59.33492       50.81936       50.79607
H         60.67095       51.47209       51.81273
N         59.22818       51.05333       56.40802
C         58.45619       51.02920       57.64742
C         56.96271       51.29977       57.42788
O         56.19649       51.07984       58.35305
C         59.09630       52.01086       58.68782
C         58.59615       51.84112       60.14446
C         58.92482       53.48500       58.26614
C         58.85015       50.44536       60.71794
H         59.98082       51.74916       56.29988
H         58.56732       49.99597       58.03553
H         60.18821       51.79193       58.71066
H         57.51846       52.08839       60.23384
H         59.15772       52.55831       60.78411
H         57.85276       53.77517       58.27039
H         59.46794       54.14979       58.97176
H         59.33407       53.67410       57.25353
H         58.24545       49.67738       60.19597
H         59.92779       50.18537       60.64037
H         58.56005       50.42835       61.78929
N         56.48160       51.79566       56.24520
C         55.05997       52.04976       55.99399
C         54.58155       51.28350       54.77012
O         55.39974       50.76370       54.02892
C         54.79486       53.56846       55.83670
C         55.63196       54.21978       54.72281
O         55.07578       54.20712       57.05512
H         57.14393       52.01864       55.49203
H         54.45266       51.68667       56.85133
H         53.71292       53.69711       55.59543
H         54.55927       55.05564       57.06242
H         55.36447       55.29344       54.63138
H         56.71605       54.16773       54.95790
H         55.44800       53.72824       53.74518
N         53.24325       51.14551       54.52067
C         52.73503       50.39613       53.36956
C         53.06409       51.08855       52.04681
O         53.54655       52.21368       52.04105
C         51.21524       50.06898       53.50531
C         50.29753       51.29013       53.62625
O         51.02408       49.24457       54.62609
H         52.58386       51.53091       55.21019
H         53.25289       49.41242       53.35555
H         50.90677       49.51132       52.59186
H         50.27051       48.63066       54.41677
H         49.24064       50.94566       53.66416
H         50.49231       51.85325       54.56125
H         50.41630       51.96453       52.75481
N         52.83708       50.42938       50.87452
C         53.07567       50.98006       49.54420
C         53.43839       49.91874       48.47882
O         53.68208       50.31169       47.34765
C         51.86914       51.86002       49.15241
C         50.53408       51.09484       49.09298
C         49.36222       52.07996       48.93326
C         47.98580       51.39552       48.92421
N         47.75620       50.62905       47.69904
H         52.37281       49.52833       50.94558
H         53.96364       51.64924       49.59270
H         52.05704       52.35964       48.17713
H         51.78396       52.65639       49.92493
H         50.37488       50.54416       50.04511
H         50.57169       50.36237       48.26038
H         49.48041       52.69185       48.01301
H         49.38116       52.76544       49.80954
H         47.20405       52.18444       48.99130
H         47.88100       50.74123       49.81879
H         46.80400       50.19874       47.74348
H         47.79299       51.26609       46.87064
H         48.46392       49.86994       47.58994
N         53.54794       48.58065       48.76240
C         53.99204       47.55640       47.81457
C         53.06447       47.47368       46.61629
O         51.87920       47.22289       46.79207
C         54.02019       46.17465       48.52776
C         54.59179       45.00985       47.69578
C         56.08983       45.03522       47.54918
O         56.82990       45.99396       48.13311
O         56.65076       44.12312       46.96393
H         53.37050       48.25465       49.71192
H         55.02349       47.81038       47.48866
H         52.97529       45.91971       48.79491
H         54.59008       46.23363       49.47978
H         54.10081       44.96296       46.70136
H         54.35639       44.06755       48.23712
N         53.55013       47.63857       45.35580
C         52.71037       47.50089       44.18556
H         51.88640       48.24428       44.21484
H         53.31140       47.66528       43.26603
H         52.28330       46.47519       44.14686
H         54.55053       47.84619       45.21719
Ca        59.06483       45.72386       48.34699
O         61.76485       46.84511       49.22820
H         61.57578       46.74391       50.19493
H         61.88802       47.81897       49.09930
O         59.26980       48.97874       48.36646
H         59.31087       49.96217       48.46968
H         58.30229       48.77083       48.36521
O         59.22990       47.02521       45.83185
H         59.14660       47.66129       45.07915
H         59.45486       46.15852       45.40872

Ca 1.0



