%chk=apoCaM-CA-Ng.loop2.water3.frame553.chk
%nprocshared=20
%mem=10GB
%nosave
#b3lyp/svp scf=(tight,noincore,xqc) Test 
#IOP(5/87=12) Density=Current Pop=(MK,readradii) iop(6/33=2) iop(6/42=6)

apoCaM-CA-Ng.loop2.water3.frame553 

   -2  1 
C         56.05780       50.34211       76.57282
C         54.93759       50.64926       75.62164
O         54.21513       51.60803       75.85391
H         56.75593       51.20346       76.62030
H         55.64123       50.15516       77.58525
H         56.62554       49.44188       76.25617
N         54.72154       49.86545       74.52770
C         53.62334       50.09558       73.59721
C         53.76048       51.44498       72.91657
O         54.72402       51.65515       72.19231
C         53.57936       48.97448       72.53593
C         52.45292       49.16628       71.55616
O         52.69107       49.29404       70.36547
O         51.17772       49.20135       71.98731
H         55.34484       49.05774       74.37155
H         52.67072       50.05546       74.17150
H         53.44268       47.99493       73.04264
H         54.54712       48.94616       71.98621
N         52.79663       52.39604       73.08363
C         52.80328       53.66606       72.36573
C         54.03437       54.49935       72.69416
O         54.62283       54.28073       73.74441
C         51.53737       54.46294       72.70993
H         52.00272       52.18383       73.70749
H         52.77781       53.41915       71.29233
H         50.63668       53.86746       72.45201
H         51.51622       54.69422       73.79658
H         51.47921       55.41845       72.15724
N         54.49719       55.49945       71.88330
C         53.96341       55.83983       70.55753
C         54.14486       54.69958       69.54854
O         54.78853       53.70674       69.86328
C         54.63094       57.13059       70.02732
C         56.11268       56.98737       69.84980
O         56.73199       55.84660       70.19830
O         56.76254       57.90601       69.37736
H         55.29381       56.04823       72.24482
H         52.88453       56.05776       70.65045
H         54.44022       57.96858       70.73168
H         54.18717       57.40240       69.04647
N         53.57609       54.77682       68.30794
C         53.63859       53.70116       67.32209
C         52.94395       52.44194       67.81593
O         52.45674       52.43564       68.93706
H         53.05484       55.62782       68.05052
H         54.70146       53.47338       67.08584
H         53.13581       54.04351       66.39334
N         52.85690       51.29984       67.07599
C         53.29053       51.13385       65.69055
C         54.67624       50.48987       65.60091
O         55.12787       50.23004       64.49388
C         52.27692       50.20489       64.96434
C         50.85178       50.71489       64.95833
N         50.18793       50.89557       63.79219
O         50.27580       50.92941       66.01470
H         52.42760       50.47975       67.53540
H         53.32353       52.11120       65.16482
H         52.27582       49.21278       65.46960
H         52.60975       50.04337       63.91644
H         50.63908       50.69749       62.88752
H         49.20846       51.21776       63.79349
N         55.39042       50.16264       66.71547
C         56.61647       49.37681       66.69908
C         57.87006       50.01710       66.12123
O         58.89886       49.36437       66.21575
H         55.00235       50.37763       67.64463
H         56.42216       48.41634       66.17570
H         56.86105       49.12930       67.75508
N         57.91269       51.24686       65.52874
C         59.17922       51.84087       65.07139
C         60.07915       52.11367       66.27583
O         59.57193       52.53860       67.30425
C         58.94919       53.09359       64.19516
C         58.26504       52.70359       62.87195
O         58.17695       54.03977       64.88111
H         57.03967       51.78034       65.41400
H         59.70823       51.11890       64.40848
H         59.94567       53.52859       63.94912
H         58.16784       54.86231       64.32448
H         58.13905       53.59706       62.22510
H         58.89286       51.97109       62.31857
H         57.26708       52.25129       63.05008
N         61.41622       51.81713       66.23835
C         62.25256       51.72401       67.44017
C         63.20044       52.91349       67.53763
O         64.05250       53.07680       66.67628
C         63.00701       50.34484       67.43474
C         63.75740       49.99474       68.74928
C         62.01849       49.19215       67.15816
C         64.98248       50.84639       69.07110
H         61.83735       51.54247       65.33729
H         61.59216       51.73377       68.33175
H         63.73878       50.33610       66.59592
H         64.14570       48.95575       68.66015
H         63.04855       50.01401       69.60021
H         62.55689       48.22081       67.11499
H         61.24128       49.13786       67.94974
H         61.52620       49.31146       66.17164
H         64.72439       51.89446       69.26860
H         65.46217       50.45329       69.99253
H         65.71570       50.79839       68.23950
N         63.08810       53.79209       68.58237
C         63.93277       54.97427       68.78099
C         64.56118       55.05917       70.17688
O         65.24584       56.04399       70.41840
C         63.11289       56.23491       68.47002
C         61.82748       56.24338       69.21892
O         60.70560       56.06230       68.51577
O         61.79196       56.30751       70.43751
H         62.31781       53.64997       69.25060
H         64.77815       54.97645       68.05910
H         62.86733       56.20377       67.38535
H         63.68470       57.16925       68.65499
N         64.44180       54.07532       71.12141
C         65.27089       54.03948       72.32849
C         64.54999       53.35327       73.48513
O         65.02266       52.32392       73.95043
C         66.61371       53.34715       71.97327
C         67.44530       54.25426       71.10064
C         67.64141       53.98155       69.73683
C         68.00395       55.41979       71.65738
C         68.36833       54.87593       68.94200
C         68.73868       56.30137       70.86368
C         68.91590       56.03354       69.50502
H         63.92432       53.22084       70.88786
H         65.50563       55.06191       72.69352
H         66.38785       52.38065       71.47060
H         67.21687       53.12316       72.88036
H         67.20927       53.09824       69.28434
H         67.86564       55.64579       72.70802
H         68.50122       54.67716       67.88693
H         69.16229       57.19586       71.30242
H         69.47533       56.72572       68.88948
N         63.43185       53.89586       74.06422
C         62.79133       53.36424       75.26237
C         62.37697       51.90983       75.17808
O         62.23175       51.28409       76.21880
C         61.54752       54.24377       75.42168
C         62.04429       55.57217       74.90104
C         62.82579       55.14833       73.65965
H         63.51062       53.50257       76.10177
H         60.75923       53.90281       74.70993
H         61.12038       54.25731       76.44721
H         61.26318       56.33899       74.71533
H         62.76510       55.97064       75.65265
H         62.16338       54.95174       72.78954
H         63.55814       55.94925       73.42678
N         62.12634       51.31709       73.97684
C         61.73297       49.92047       73.86062
C         62.87354       49.05227       74.34824
O         62.69257       48.30466       75.29911
C         61.34330       49.48373       72.41874
C         60.16518       50.25933       71.78899
C         60.54677       51.54557       71.10164
O         59.68021       52.24999       70.61396
O         61.83355       51.88271       70.91845
H         62.21540       51.89202       73.14107
H         60.83012       49.75888       74.49341
H         61.00314       48.42925       72.52506
H         62.20542       49.46948       71.72129
H         59.38611       50.43209       72.56221
H         59.71667       49.63044       70.98963
N         64.09269       49.12892       73.74142
C         65.24794       48.36067       74.15455
H         66.06259       49.05684       74.44590
H         65.02892       47.69587       75.01579
H         65.59644       47.73740       73.30493
H         64.21940       49.77696       72.94892
Ca        58.81282       55.63612       69.54321
O         56.90998       55.35312       67.10714
H         57.83069       54.99976       67.19211
H         57.03397       56.29869       66.84183
O         57.45974       53.37641       72.22702
H         57.07769       52.88936       71.45463
H         57.93799       52.68133       72.74526
O         57.32876       51.69438       68.96412
H         58.02707       50.99199       68.97112
H         56.54568       51.26611       69.39090

Ca 1.0



