%chk=apoCaM-CA-Ng.loop3.water2.frame531.chk
%nprocshared=20
%mem=10GB
%nosave
#b3lyp/svp scf=(tight,noincore,xqc) Test 
#IOP(5/87=12) Density=Current Pop=(MK,readradii) iop(6/33=2) iop(6/42=6)

apoCaM-CA-Ng.loop3.water2.frame531 

   0  1 
C         65.75039       11.55545       62.64208
C         64.73098       11.39615       63.72894
O         63.65112       10.88292       63.47138
H         66.66291       10.98053       62.91027
H         65.36194       11.17152       61.67511
H         66.01515       12.62683       62.52907
N         65.03017       11.79218       64.99559
C         64.13022       11.57972       66.11997
C         62.85943       12.39768       65.96965
O         62.93178       13.61921       65.97219
C         64.85422       11.93630       67.43530
C         64.15008       11.44909       68.66193
O         64.67152       11.71522       69.87419
O         63.14016       10.77237       68.57319
H         65.96426       12.19659       65.16855
H         63.88431       10.49775       66.14397
H         65.01163       13.03463       67.49442
H         65.84407       11.45106       67.44351
N         61.65423       11.78088       65.80881
C         60.40733       12.52488       65.63278
C         59.92713       13.15301       66.94082
O         59.01051       13.96112       66.90726
C         59.33493       11.56286       65.09363
C         58.07891       12.23144       64.52111
C         57.16782       11.16575       63.89412
C         55.96436       11.79674       63.18681
N         55.14882       10.76976       62.53829
H         61.63791       10.74983       65.75164
H         60.59644       13.30293       64.85973
H         59.05656       10.86289       65.90822
H         59.79717       10.99274       64.25632
H         58.39328       12.94518       63.72871
H         57.52089       12.78354       65.30537
H         56.81677       10.46149       64.68085
H         57.74965       10.59118       63.13970
H         56.32708       12.51011       62.41328
H         55.34588       12.35693       63.92219
H         54.34724       11.22717       62.04740
H         55.72093       10.24980       61.83285
H         54.77703       10.10044       63.25058
N         60.46161       12.77174       68.13779
C         60.00296       13.24049       69.43916
C         61.08160       14.00508       70.20064
O         60.75311       14.57942       71.22950
C         59.46141       12.03304       70.25564
C         60.40406       10.83806       70.31624
O         61.63958       10.95494       70.84261
O         60.05126        9.76474       69.85413
H         61.20413       12.06887       68.14135
H         59.17014       13.96705       69.31105
H         58.52208       11.69344       69.76545
H         59.19643       12.36299       71.28353
N         62.37320       14.08295       69.76533
C         63.41945       14.85025       70.43033
C         63.78866       14.41011       71.84284
O         64.69250       15.02406       72.39312
H         62.64011       13.61945       68.88908
H         63.11594       15.91908       70.45901
H         64.34221       14.77972       69.81287
N         63.14457       13.40964       72.51372
C         63.44257       13.03112       73.89468
C         63.68922       11.53857       74.01592
O         63.49360       10.81835       73.05835
C         62.23975       13.42224       74.77497
C         62.09392       14.92143       74.84692
N         61.00019       15.54454       74.35124
O         62.98173       15.58277       75.36470
H         62.36892       12.91585       72.06383
H         64.35535       13.54997       74.26158
H         62.36372       13.04661       75.81229
H         61.32096       12.95376       74.35305
H         60.24210       15.01144       73.90213
H         60.91700       16.57062       74.40850
N         64.12482       11.00082       75.18657
C         64.31552        9.57332       75.41491
C         65.28065        8.92936       74.44124
O         66.36635        9.45657       74.24243
H         64.32387       11.63711       75.97377
H         63.33441        9.05267       75.37733
H         64.72557        9.44409       76.43891
N         64.96301        7.74024       73.84073
C         65.87402        7.03416       72.93895
C         65.75072        7.58839       71.48753
O         65.55457        8.96705       71.49477
C         65.55968        5.51841       72.93803
C         65.78916        4.86334       74.28252
C         67.09452        4.67220       74.76872
C         64.70192        4.41140       75.05103
C         67.30661        4.03666       75.99798
C         64.91576        3.78967       76.28563
C         66.22021        3.59658       76.76167
O         66.44094        2.98938       77.94577
H         64.07821        7.28129       74.10677
H         66.91499        7.16970       73.31103
H         66.17821        4.97922       72.18751
H         64.50009        5.38959       72.64028
H         67.94869        4.99748       74.18817
H         63.68678        4.54642       74.69993
H         68.31694        3.88241       76.35657
H         64.06714        3.45472       76.86910
H         65.71748        2.67100       78.50486
N         66.90618        7.16462       70.65230
C         67.32931        7.95322       69.46592
C         66.24442        8.04847       68.40528
O         65.20499        8.63647       68.66053
C         67.89258        9.38947       69.79067
C         68.39234       10.14623       68.52364
C         68.99346        9.36613       70.86440
C         69.61193        9.55242       67.81877
H         67.75048        6.97078       71.23849
H         68.18058        7.39007       69.02732
H         67.07757       10.02778       70.17751
H         68.63947       11.19324       68.80713
H         67.57776       10.19674       67.77937
H         69.84829        8.73400       70.54672
H         69.35986       10.39782       71.05604
H         68.60194        8.97696       71.82582
H         70.49800        9.56058       68.48443
H         69.41355        8.52135       67.46706
H         69.84879       10.17669       66.93035
N         66.49211        7.60584       67.13630
C         65.64814        7.97815       66.00379
C         64.24095        7.40542       66.03707
O         63.41755        7.88118       65.26642
C         66.32187        7.62157       64.66871
O         67.55688        8.28077       64.55255
H         67.38439        7.12472       66.94862
H         65.56589        9.08201       66.03137
H         65.68483        7.94976       63.81947
H         66.44229        6.51636       64.57690
H         68.26630        7.62606       64.78270
N         63.88271        6.37510       66.85281
C         62.51926        5.85390       66.87431
C         61.58974        6.88346       67.50268
O         61.87545        7.29850       68.61525
C         62.45758        4.54570       67.67163
H         64.59859        5.93170       67.44822
H         62.22010        5.59418       65.84055
H         63.12730        3.79070       67.20738
H         62.77315        4.69203       68.72134
H         61.42226        4.14284       67.66423
N         60.45955        7.36791       66.91004
C         59.93615        6.97413       65.60726
C         59.57195        5.49513       65.59116
O         58.85840        5.08079       66.49450
C         58.66377        7.77064       65.29793
H         59.92431        8.07058       67.44642
H         60.66780        7.26684       64.83878
H         58.90727        8.83994       65.26524
H         58.25147        7.50246       64.30602
H         57.88142        7.59963       66.06776
N         59.94563        4.62006       64.60757
C         60.65809        4.97108       63.38250
C         61.56777        3.83210       62.96808
O         62.76968        4.03939       62.86704
C         59.63334        5.34194       62.29064
C         60.29007        5.96118       61.04944
C         59.24712        6.43101       60.07466
O         58.47320        5.63546       59.56674
O         59.15868        7.73836       59.76061
H         59.55683        3.66685       64.67522
H         61.30833        5.84763       63.54148
H         58.95162        6.10945       62.70744
H         59.01623        4.45900       62.01559
H         60.95965        5.22791       60.55336
H         60.89595        6.83969       61.36455
N         61.06528        2.58896       62.72857
C         61.91143        1.47615       62.35987
H         62.67092        1.29928       63.15144
H         61.29826        0.55681       62.24721
H         62.41966        1.68932       61.39623
H         60.05354        2.41641       62.82373
Ca        63.32853        9.37792       70.95227
O         60.94931        8.52424       72.82067
H         60.97984        8.97694       73.70067
H         59.99399        8.54885       72.56117
O         63.08317        6.40053       70.87260
H         62.41152        5.67478       70.89137
H         63.79834        6.06906       70.27208

Ca 1.0



