%chk=apoCaM-CA-Ng.loop2.water4.frame550.chk
%nprocshared=20
%mem=10GB
%nosave
#b3lyp/svp scf=(tight,noincore,xqc) Test 
#IOP(5/87=12) Density=Current Pop=(MK,readradii) iop(6/33=2) iop(6/42=6)

apoCaM-CA-Ng.loop2.water4.frame550 

   -2  1 
C         54.66819       38.37377       70.22249
C         53.28113       38.78550       69.83837
O         52.86664       39.88238       70.18757
H         55.35507       39.24241       70.14906
H         54.66685       37.98551       71.26124
H         55.04051       37.58386       69.53580
N         52.49012       37.93024       69.13259
C         51.14321       38.27015       68.70696
C         51.20512       39.44723       67.74702
O         51.66441       39.29712       66.62954
C         50.46213       37.02295       68.10607
C         49.05892       37.27654       67.64290
O         48.75876       37.09176       66.47413
O         48.11836       37.67764       68.51838
H         52.85839       36.99225       68.91508
H         50.55480       38.55807       69.60534
H         50.42830       36.24047       68.89676
H         51.06870       36.63064       67.25978
N         50.75032       40.65992       68.16218
C         50.71625       41.89038       67.36438
C         52.09777       42.50463       67.07146
O         53.02263       42.20300       67.81385
C         49.91248       42.91535       68.18120
H         50.32745       40.67652       69.10234
H         50.19040       41.64116       66.42550
H         49.52775       43.72958       67.55151
H         49.03486       42.42905       68.66150
H         50.54197       43.33159       69.00278
N         52.32683       43.46312       66.10471
C         51.34763       43.94128       65.11557
C         51.03980       42.87733       64.11187
O         51.86359       42.01050       63.98746
C         51.83582       45.20399       64.36468
C         53.12035       45.05330       63.57247
O         53.87340       43.94376       63.65326
O         53.49314       45.96439       62.85188
H         53.27507       43.86896       66.06731
H         50.40927       44.18988       65.63670
H         51.97291       46.02056       65.10128
H         51.03523       45.51222       63.65767
N         49.92271       42.91377       63.32477
C         49.47762       41.83863       62.43335
C         48.76539       40.72167       63.18880
O         48.68808       40.79203       64.40719
H         49.32556       43.74969       63.38150
H         50.31441       41.44311       61.82220
H         48.72601       42.27287       61.74554
N         48.18779       39.64563       62.57087
C         48.17385       39.35931       61.13883
C         48.98538       38.09290       60.84656
O         48.97178       37.62934       59.71578
C         46.70354       39.25552       60.64258
C         45.98326       40.58416       60.51460
N         44.69939       40.60799       60.08624
O         46.55506       41.63807       60.74724
H         47.73709       38.93406       63.17285
H         48.67155       40.14995       60.54128
H         46.12363       38.57991       61.30846
H         46.68677       38.83621       59.61454
H         44.19677       39.72962       59.89371
H         44.20770       41.50244       59.93660
N         49.80222       37.54055       61.79203
C         50.76449       36.48489       61.51633
C         51.80270       36.89543       60.48945
O         52.37434       36.01134       59.86656
H         49.77238       37.90124       62.74615
H         50.21623       35.59865       61.14387
H         51.30186       36.19839       62.45027
N         52.10545       38.20857       60.25940
C         53.01022       38.65372       59.21423
C         54.31169       39.15576       59.79793
O         54.34670       39.73477       60.87187
C         52.32825       39.63391       58.23412
C         51.25367       38.90537       57.42436
O         51.75321       40.71216       58.92191
H         51.67549       38.94042       60.83392
H         53.30519       37.78233       58.59656
H         53.10397       40.00888       57.53124
H         50.96175       41.05774       58.42943
H         50.43219       38.60871       58.09838
H         50.84557       39.59718       56.65964
H         51.67216       38.01354       56.91667
N         55.45241       38.79161       59.15758
C         56.77270       38.75756       59.75038
C         57.58594       39.96291       59.30353
O         57.66338       40.26053       58.12160
C         57.40380       37.36743       59.40704
C         58.87950       37.26673       59.86806
C         56.52538       36.25803       60.04533
C         59.56905       35.93916       59.53833
H         55.35380       38.29944       58.25764
H         56.69471       38.77702       60.85477
H         57.39077       37.23494       58.30149
H         58.94524       37.42552       60.95976
H         59.46235       38.06195       59.35828
H         56.55112       36.31655       61.15512
H         55.46007       36.34778       59.73913
H         56.85305       35.25090       59.72608
H         59.10685       35.09765       60.09405
H         59.54044       35.72313       58.44868
H         60.63358       36.00923       59.85059
N         58.19716       40.72057       60.25173
C         59.03138       41.88603       60.03140
C         60.36398       41.81653       60.81520
O         61.15781       42.73462       60.66214
C         58.18289       43.15673       60.29093
C         57.27437       43.06605       61.47195
O         55.95624       42.78744       61.31337
O         57.70448       43.38759       62.55709
H         58.01950       40.49049       61.21960
H         59.32776       41.94390       58.96730
H         57.51234       43.28782       59.41712
H         58.81907       44.06057       60.36883
N         60.72565       40.72981       61.57487
C         62.02279       40.54802       62.22034
C         61.85294       39.98027       63.64532
O         62.41980       38.93107       63.92705
C         62.89778       39.58020       61.36582
C         63.33898       40.13832       60.03336
C         62.51957       40.08092       58.89071
C         64.62730       40.68707       59.92284
C         62.98743       40.58020       57.66515
C         65.08681       41.18671       58.70568
C         64.26779       41.13898       57.57654
H         60.10169       39.92905       61.63448
H         62.57269       41.51187       62.30395
H         62.42823       38.58083       61.21534
H         63.82438       39.38773       61.94713
H         61.53384       39.63578       58.94355
H         65.27863       40.73054       60.78625
H         62.36446       40.52920       56.78044
H         66.08286       41.60482       58.64415
H         64.63233       41.52867       56.63418
N         61.11211       40.59914       64.62162
C         61.03062       40.11844       66.00800
C         60.34039       38.76492       66.21110
O         60.30992       38.25803       67.32342
C         60.20740       41.19883       66.71526
C         60.44155       42.43549       65.86101
C         60.43028       41.86097       64.45557
H         62.06921       40.08068       66.39776
H         59.12036       40.96968       66.61134
H         60.46384       41.29614       67.79035
H         59.70246       43.25177       66.01280
H         61.46467       42.82136       66.06058
H         59.38656       41.64496       64.13703
H         60.92484       42.56816       63.75682
N         59.73171       38.15667       65.16738
C         59.07797       36.86555       65.17848
C         60.16233       35.84040       64.94047
O         60.26594       34.87889       65.68759
C         57.99711       36.74994       64.06410
C         56.88332       37.82280       64.04921
C         57.28834       39.10002       63.40969
O         56.38251       40.04436       63.16787
O         58.39483       39.23699       62.95755
H         59.90780       38.56579       64.26796
H         58.55371       36.70128       66.14753
H         57.48550       35.77819       64.21499
H         58.46912       36.71959       63.06008
H         56.46872       38.00153       65.06172
H         56.07714       37.45680       63.37988
N         61.06179       36.04502       63.93195
C         62.25486       35.25368       63.75173
H         63.07015       35.66283       64.38982
H         62.07345       34.19016       63.99764
H         62.58735       35.33924       62.69535
H         60.98045       36.88623       63.34275
Ca        54.82748       41.56109       62.82252
O         56.50970       42.41383       65.14087
H         56.71129       41.47397       64.93052
H         57.20152       42.90060       64.64686
O         54.34075       40.54505       65.39245
H         53.49645       40.08503       65.58457
H         54.50245       41.10565       66.18839
O         52.09394       39.17978       63.08075
H         51.88083       39.99677       63.53220
H         51.48051       38.60820       63.57851
O         52.82976       42.66375       61.15976
H         52.21490       43.39619       60.91739
H         52.62746       41.96173       60.50811

Ca 1.0



