%chk=apoCaM-CA-Ng.loop1.water4.frame389.chk
%nprocshared=20
%mem=10GB
%nosave
#b3lyp/svp scf=(tight,noincore,xqc) Test 
#IOP(5/87=12) Density=Current Pop=(MK,readradii) iop(6/33=2) iop(6/42=6)

apoCaM-CA-Ng.loop1.water4.frame389 

   0  1 
C         -3.20041       65.76022       20.21302
C         -2.41192       64.50973       19.94709
O         -1.34399       64.59300       19.35828
H         -4.14694       65.53673       20.75088
H         -2.60080       66.45404       20.83840
H         -3.45255       66.25459       19.25245
N         -2.87788       63.30447       20.37342
C         -2.15760       62.04842       20.19284
C         -2.28243       61.48962       18.77344
O         -1.91644       60.34708       18.58697
C         -2.64333       61.00013       21.22597
C         -2.37020       61.43259       22.64631
O         -1.52816       60.71580       23.41589
O         -2.90814       62.42398       23.11265
H         -3.76303       63.28806       20.90316
H         -1.07999       62.19062       20.42328
H         -2.08223       60.05268       21.06502
H         -3.72542       60.78731       21.09481
N         -2.78679       62.19317       17.72152
C         -2.92896       61.62522       16.37911
C         -2.14999       62.43570       15.34875
O         -2.23789       63.65393       15.40270
C         -4.42964       61.55321       16.04607
C         -5.06833       60.41383       16.86127
C         -6.54995       60.21809       16.54772
C         -7.05464       58.93060       17.21720
N         -8.47615       58.72001       16.95794
H         -3.11598       63.15738       17.85997
H         -2.55427       60.59403       16.33417
H         -4.56519       61.30808       14.97407
H         -4.92322       62.53171       16.23470
H         -4.94385       60.58880       17.95233
H         -4.53652       59.47284       16.59832
H         -6.69020       60.11989       15.44906
H         -7.12126       61.10065       16.90882
H         -6.88349       58.97826       18.31561
H         -6.48147       58.06515       16.81205
H         -8.76685       57.81051       17.38452
H         -9.03338       59.49237       17.38911
H         -8.65393       58.68280       15.92798
N         -1.41157       61.88097       14.32380
C         -1.28243       60.45891       13.97434
C         -2.64853       59.82645       13.78980
O         -2.99797       58.92179       14.53250
C         -0.32169       59.68261       14.91221
C          1.10630       60.14713       14.74871
O          1.40033       61.15887       13.90575
O          2.00241       59.59485       15.36615
H         -0.96626       62.54020       13.66587
H         -0.79355       60.36739       12.98087
H         -0.33646       58.60903       14.61921
H         -0.61931       59.74822       15.97381
N         -3.49418       60.22594       12.79728
C         -3.11520       61.18768       11.76771
C         -4.17613       61.36250       10.69794
O         -5.28297       60.86726       10.85852
H         -4.41422       59.76597       12.75151
H         -2.21253       60.79126       11.26184
H         -2.88599       62.17715       12.21323
N         -3.92608       62.02518        9.53130
C         -2.63545       62.60718        9.16177
C         -1.69116       61.59968        8.50746
O         -0.57976       61.98601        8.17148
C         -2.81686       63.88239        8.30626
C         -3.42626       63.65771        6.94405
O         -2.78243       63.92043        5.94128
O         -4.69446       63.22527        6.81347
H         -4.68547       62.03170        8.83880
H         -2.12396       62.95766       10.08431
H         -1.81201       64.34177        8.16993
H         -3.43958       64.61416        8.86422
N         -2.02394       60.28466        8.36426
C         -1.09540       59.26247        7.89881
C         -0.75466       58.33892        9.04571
O         -1.18847       58.61021       10.15648
H         -2.94878       59.95534        8.67354
H         -0.14731       59.69668        7.51635
H         -1.57471       58.69210        7.07430
N          0.04861       57.24508        8.85525
C          0.42681       56.26973        9.89104
C         -0.58278       56.20968       11.03180
O         -0.23143       56.43819       12.18080
C          1.89329       56.51593       10.35181
C          2.14408       57.93438       10.90548
O          2.78953       56.24400        9.30259
H          0.44276       57.10073        7.91331
H          0.37490       55.25286        9.44419
H          2.12392       55.79195       11.16374
H          2.69516       56.95869        8.62088
H          1.48960       58.16561       11.76974
H          3.19878       58.02456       11.24177
H          1.96807       58.69789       10.11898
N         -1.89768       55.97655       10.74261
C         -2.95144       56.16617       11.72873
C         -2.99743       55.00020       12.69805
O         -3.70057       54.03386       12.44083
C         -4.34414       56.45088       11.06803
C         -4.24597       57.66560       10.10209
C         -5.41154       56.70902       12.15767
C         -5.54097       58.00217        9.36250
H         -2.15356       55.81168        9.75836
H         -2.71371       57.09753       12.29378
H         -4.65192       55.55979       10.47801
H         -3.49780       57.45986        9.31312
H         -3.90813       58.55829       10.66195
H         -6.41477       56.86302       11.71424
H         -5.51089       55.84363       12.84269
H         -5.14766       57.59733       12.76579
H         -5.88872       57.12531        8.77769
H         -6.33774       58.32906       10.05923
H         -5.35080       58.84327        8.66167
N         -2.37072       55.10801       13.90072
C         -2.57797       54.19686       15.02497
C         -2.15265       54.90605       16.31157
O         -1.47215       54.32239       17.14279
C         -1.88544       52.81092       14.82748
C         -0.35864       52.91762       14.62508
O         -2.47971       52.08537       13.77806
H         -1.81838       55.96334       14.06255
H         -3.67463       54.04960       15.14118
H         -2.05123       52.20960       15.74798
H         -2.01456       52.30609       12.92916
H          0.07444       51.89975       14.52082
H         -0.12392       53.49706       13.70685
H          0.13562       53.41081       15.48526
N         -2.51139       56.21622       16.49355
C         -2.14950       57.08622       17.61181
C         -0.64774       57.09262       17.92777
O          0.11665       56.37706       17.29686
C         -3.08314       56.85656       18.82958
C         -2.88903       55.52869       19.55854
O         -4.41694       56.95762       18.39459
H         -3.06268       56.66893       15.75019
H         -2.39331       58.12254       17.28796
H         -2.87619       57.67251       19.55941
H         -4.95802       57.28014       19.16165
H         -3.56466       55.49900       20.44011
H         -3.15232       54.67148       18.90974
H         -1.84314       55.43461       19.91737
N         -0.15702       57.90723       18.90480
C          1.23252       57.92338       19.34632
C          1.91937       59.26913       19.07869
O          3.09267       59.39299       19.39849
C          1.20782       57.52481       20.84193
C          2.58759       57.41178       21.50733
C          2.52937       56.85643       22.93984
C          2.07326       55.38750       22.99557
N          2.17619       54.85913       24.35450
H         -0.80624       58.50997       19.42072
H          1.82395       57.15847       18.79716
H          0.70678       56.53572       20.87707
H          0.58700       58.24555       21.42062
H          3.03700       58.42319       21.57373
H          3.25107       56.76242       20.89703
H          1.86798       57.48951       23.57206
H          3.55965       56.91227       23.35303
H          2.71864       54.77882       22.32391
H          1.02106       55.29028       22.65470
H          1.86927       53.85946       24.35515
H          3.16851       54.90553       24.68213
H          1.56270       55.40514       25.00165
N          1.28992       60.30686       18.45254
C          1.94207       61.58655       18.18544
C          2.33430       62.25427       19.48791
O          1.46559       62.53583       20.30206
C          1.00060       62.52183       17.38438
C          1.58130       63.90430       17.02720
C          2.78413       63.85101       16.12245
O          3.93737       63.29508       16.53881
O          2.73381       64.36045       15.01446
H          0.33127       60.17977       18.12448
H          2.83917       61.38156       17.56640
H          0.08007       62.69168       17.97891
H          0.69203       62.02769       16.44711
H          1.84454       64.46278       17.94940
H          0.77715       64.47232       16.50854
N          3.63550       62.55236       19.74519
C          4.03998       63.21667       20.96368
H          5.13947       63.37071       20.96319
H          3.54217       64.20765       21.03540
H          3.76331       62.59782       21.84328
H          4.36183       62.31135       19.05452
Ca         3.47541       61.92368       13.48328
O          3.70723       61.15770       10.19584
H          4.00781       62.01831        9.80923
H          4.44400       60.52588       10.00018
O          0.72450       61.52871       11.11628
H          0.75387       62.29340       10.48932
H          0.60650       60.73415       10.53854
O          5.67481       60.00067       13.49207
H          4.79682       59.54213       13.50582
H          5.73958       60.38468       12.58133
O          5.32152       63.82283       11.90543
H          5.38457       64.61241       12.49965
H          6.23329       63.71600       11.53461

Ca 1.0



