%chk=apoCaM-CA-Ng.loop1.water3.frame1153.chk
%nprocshared=20
%mem=10GB
%nosave
#b3lyp/svp scf=(tight,noincore,xqc) Test 
#IOP(5/87=12) Density=Current Pop=(MK,readradii) iop(6/33=2) iop(6/42=6)

apoCaM-CA-Ng.loop1.water3.frame1153 

   0  1 
C         72.34378       35.50298      116.84577
C         73.68988       35.07433      116.34924
O         74.48786       35.92763      115.98876
H         71.54920       35.02955      116.23135
H         72.22655       35.19282      117.90415
H         72.23461       36.60687      116.77815
N         73.99469       33.74794      116.26487
C         75.27263       33.25593      115.76168
C         75.10401       32.75658      114.34192
O         75.43271       31.61682      114.04175
C         75.88888       32.21326      116.73239
C         75.09010       30.94245      116.93766
O         75.56883       29.99414      117.76471
O         74.02998       30.74803      116.36344
H         73.26123       33.06946      116.51564
H         75.99331       34.09218      115.69109
H         76.02988       32.69447      117.72360
H         76.89129       31.92239      116.34893
N         74.57702       33.59194      113.39988
C         74.34543       33.16618      112.03061
C         75.66362       32.89369      111.31517
O         75.81674       31.77650      110.84003
C         73.43591       34.15153      111.26278
C         72.78422       33.45359      110.05810
C         71.84236       34.39272      109.30110
C         71.06086       33.62238      108.22774
N         70.20679       34.52206      107.45501
H         74.27985       34.53717      113.68232
H         73.75368       32.22420      112.09991
H         73.97486       35.06672      110.94900
H         72.60240       34.45473      111.93505
H         72.19076       32.59257      110.44189
H         73.55915       33.06672      109.36167
H         72.44276       35.20364      108.83501
H         71.11181       34.84627      110.00694
H         70.42773       32.85041      108.72256
H         71.76594       33.10641      107.53952
H         69.65909       33.96209      106.76240
H         69.54207       35.02467      108.08706
H         70.79767       35.21421      106.93973
N         76.70792       33.78015      111.23112
C         76.77536       35.12374      111.82010
C         77.46633       35.06736      113.17221
O         77.89521       33.99623      113.57141
C         77.36532       36.13708      110.80330
C         78.62540       35.69204      110.09146
O         79.81062       35.53645      110.71102
O         78.57401       35.47525      108.89090
H         77.57591       33.42016      110.80505
H         75.76736       35.48886      112.07840
H         77.51815       37.13500      111.26635
H         76.59047       36.26195      110.01425
N         77.50057       36.16995      113.98657
C         77.91309       36.09194      115.38656
C         79.14174       36.89451      115.70199
O         79.67285       37.56997      114.84483
H         77.14733       37.07215      113.63637
H         78.14726       35.04608      115.67024
H         77.07805       36.43755      116.03095
N         79.68292       36.80476      116.94827
C         80.96158       37.41051      117.31556
C         80.76945       38.37349      118.47747
O         79.67992       38.40050      119.03137
C         81.91652       36.25721      117.69130
C         82.09802       35.31000      116.53878
O         82.57971       35.70544      115.48959
O         81.72345       34.02182      116.65813
H         79.20063       36.22350      117.65107
H         81.37843       37.98142      116.46067
H         81.49000       35.69921      118.55528
H         82.91392       36.61725      117.98556
N         81.73877       39.22379      118.93424
C         83.06788       39.44139      118.38077
C         83.03129       40.07162      117.00698
O         82.30277       41.03537      116.81582
H         81.49762       39.80604      119.75236
H         83.69714       38.53350      118.41510
H         83.57860       40.18025      119.03522
N         83.87379       39.64132      116.02608
C         83.95624       40.28277      114.71549
C         82.71166       39.99967      113.89759
O         82.32779       38.84562      113.77391
C         85.20264       39.81918      113.92302
C         86.50444       40.23670      114.62291
O         85.17329       40.42123      112.65330
H         84.52500       38.87117      116.24477
H         84.08096       41.38183      114.84686
H         85.16935       38.71078      113.81555
H         85.79568       39.90867      112.07881
H         87.37735       39.90975      114.01834
H         86.54828       41.34346      114.72257
H         86.58992       39.78182      115.62984
N         82.09411       41.01852      113.23086
C         80.95863       40.86029      112.32900
C         81.29611       39.88462      111.21019
O         80.97038       38.71019      111.32885
C         79.64981       40.46064      113.07395
C         79.33351       41.36508      114.29152
C         78.44610       40.39907      112.10852
C         79.10990       42.84250      113.96145
H         82.48309       41.96930      113.32299
H         80.75923       41.84955      111.86140
H         79.78925       39.44707      113.47601
H         80.16456       41.29304      115.02452
H         78.42051       40.97577      114.79399
H         77.53276       40.07832      112.65276
H         78.25909       41.38370      111.63346
H         78.61602       39.66296      111.29614
H         78.25300       42.97490      113.27053
H         78.88001       43.39227      114.89806
H         80.02048       43.29092      113.51512
N         81.89672       40.31604      110.06453
C         82.07827       39.44450      108.90539
C         83.54499       39.23963      108.53346
O         83.80392       38.40118      107.68135
C         81.23743       40.02990      107.73865
C         81.07046       39.08299      106.54862
O         81.79675       41.23895      107.28748
H         82.16540       41.30925      109.99073
H         81.67471       38.43465      109.13681
H         80.19933       40.20273      108.11468
H         81.39550       41.97147      107.82374
H         82.03679       38.86527      106.05431
H         80.59967       38.13310      106.88086
H         80.40391       39.55579      105.79525
N         84.56160       39.96313      109.09355
C         85.94881       39.78536      108.66831
C         86.47930       38.44297      109.16061
O         86.60534       38.24570      110.35910
C         86.82949       40.97236      109.13034
C         88.27510       40.83022      108.64720
O         86.31507       42.16772      108.59605
H         84.34330       40.69970      109.77811
H         85.96456       39.81720      107.55462
H         86.85550       41.02769      110.24304
H         85.69582       42.55533      109.26756
H         88.30894       40.75889      107.53834
H         88.86530       41.71601      108.96357
H         88.74801       39.92835      109.08486
N         86.78100       37.46604      108.26058
C         87.23647       36.11417      108.57204
C         86.24610       35.37245      109.45230
O         86.26210       35.55522      110.66205
C         88.66018       36.03734      109.16631
C         89.71283       36.72621      108.28338
C         91.15468       36.31182      108.63094
C         91.57113       36.57258      110.08655
N         92.95402       36.14330      110.30593
H         86.63509       37.67405      107.26088
H         87.28752       35.57632      107.59818
H         88.91215       34.95597      109.24424
H         88.69452       36.47814      110.18637
H         89.58938       37.82717      108.35439
H         89.55449       36.42911      107.22420
H         91.84313       36.86132      107.95234
H         91.26461       35.22468      108.42414
H         90.91165       36.00104      110.77523
H         91.47622       37.65525      110.32057
H         93.05428       35.12423      110.08908
H         93.60358       36.69422      109.69891
H         93.21118       36.29836      111.30725
N         85.33995       34.52031      108.89598
C         84.39337       33.73547      109.68286
C         82.99481       34.34269      109.64254
O         82.53101       34.69879      110.71633
C         84.41304       32.24275      109.28849
C         85.79360       31.60711      109.50060
C         85.77512       30.15882      109.10117
O         84.94716       29.29529      109.72035
O         86.51118       29.75699      108.21410
H         85.32357       34.44716      107.87161
H         84.69773       33.76161      110.75387
H         84.12139       32.10058      108.23175
H         83.67249       31.70210      109.91892
H         86.08214       31.68118      110.57128
H         86.55199       32.14650      108.89183
N         82.22195       34.52624      108.52898
C         82.54681       34.19777      107.15825
H         83.53400       33.74687      107.02093
H         81.79177       33.48309      106.77016
H         82.50764       35.12384      106.54751
H         81.29417       34.95403      108.66373
Ca        80.42481       36.04254      112.80308
O         84.12271       34.08962      113.47992
H         84.25289       33.83134      114.42665
H         83.81160       33.25996      113.03863
O         81.02112       33.21071      113.65086
H         80.34910       33.36621      112.94111
H         80.48885       32.94891      114.44323
O         83.79877       37.06596      111.86226
H         84.53441       36.72646      112.43120
H         84.12688       37.93466      111.52024

Ca 1.0



