%chk=apoCaM-CA-Ng.loop4.water4.frame401.chk
%nprocshared=20
%mem=10GB
%nosave
#b3lyp/svp scf=(tight,noincore,xqc) Test 
#IOP(5/87=12) Density=Current Pop=(MK,readradii) iop(6/33=2) iop(6/42=6)

apoCaM-CA-Ng.loop4.water4.frame401 

   -3  1 
C        110.20619       81.07889        2.01002
C        111.69172       81.22374        2.13848
O        112.29886       81.74856        1.21785
H        109.75030       82.08295        1.87526
H        109.97277       80.45584        1.12078
H        109.76428       80.60203        2.90849
N        112.34796       80.80905        3.26410
C        113.78931       80.94304        3.45195
C        114.21746       82.39008        3.31747
O        115.00441       82.70839        2.45020
C        114.60035       79.87161        2.65680
C        114.14582       79.45681        1.26918
O        114.25250       80.22787        0.16838
O        113.69856       78.32925        1.12497
H        111.79833       80.41862        4.04406
H        114.03641       80.70429        4.51217
H        114.48698       78.94456        3.26518
H        115.68657       80.10685        2.67321
N        113.72373       83.30637        4.20563
C        114.01264       84.74283        4.28215
C        115.45767       85.03218        4.68876
O        115.65061       85.50062        5.80299
C        113.53778       85.51359        3.02188
C        113.75126       87.05000        3.13686
C        112.05759       85.19533        2.73823
C        112.99361       87.73591        4.28165
H        113.05915       82.95184        4.91171
H        113.38688       85.11569        5.12422
H        114.12874       85.17197        2.14629
H        113.42682       87.52221        2.18509
H        114.83432       87.26543        3.25806
H        111.92329       84.11873        2.51315
H        111.41339       85.44590        3.60563
H        111.69741       85.76839        1.86857
H        113.32185       87.35684        5.27002
H        113.19809       88.82675        4.25455
H        111.89836       87.59632        4.18101
N        116.52249       84.78244        3.87266
C        117.90047       84.95763        4.31042
C        118.31850       86.43110        4.27924
O        118.64320       86.93239        5.34647
C        118.85586       83.99689        3.55928
C        118.53073       82.53828        3.78831
O        119.22610       81.68120        3.26759
O        117.49010       82.16033        4.55821
H        116.37169       84.40813        2.93288
H        117.97742       84.61609        5.37003
H        119.89237       84.17192        3.92021
H        118.82808       84.15474        2.47042
N        118.34672       87.22609        3.16213
C        117.97985       86.78748        1.82287
C        118.10468       87.86717        0.74962
O        118.48192       88.98256        1.07906
H        118.64642       88.20296        3.30089
H        116.93217       86.44228        1.85619
H        118.66766       85.99287        1.53993
N        117.80065       87.65746       -0.57539
C        117.31751       86.42047       -1.19834
C        116.02928       85.97890       -0.52861
O        116.01753       84.93001        0.09768
C        118.40274       85.31733       -1.24223
C        119.65629       85.79993       -1.91690
O        119.62327       86.19463       -3.07171
O        120.82601       85.79203       -1.24951
H        117.89465       88.46766       -1.20831
H        117.09603       86.61860       -2.26959
H        118.00845       84.44902       -1.81361
H        118.65974       84.94102       -0.24109
N        114.90150       86.74511       -0.53860
C        114.70167       87.93795       -1.34404
C        114.73621       89.18893       -0.51752
O        115.07100       89.13548        0.65840
H        114.10572       86.44663        0.04335
H        113.72228       87.84101       -1.85860
H        115.46700       88.05460       -2.13393
N        114.41224       90.37723       -1.10032
C        114.51609       91.65727       -0.41204
C        113.15830       92.19839        0.01790
O        113.14544       93.13817        0.79965
C        115.42562       92.62850       -1.20561
C        115.01661       92.93378       -2.66058
C        113.74973       93.72597       -2.77354
N        113.66823       94.96756       -2.24607
O        112.79874       93.25914       -3.37778
H        114.06712       90.36020       -2.07143
H        115.03539       91.49863        0.55923
H        116.42725       92.14800       -1.26360
H        115.55183       93.57436       -0.63737
H        114.93674       91.99190       -3.24143
H        115.82190       93.53179       -3.13827
H        114.46956       95.38767       -1.75450
H        112.80858       95.52001       -2.34679
N        111.98826       91.58622       -0.33933
C        110.71648       91.83278        0.34800
C        109.63657       92.44655       -0.53191
O        108.54420       92.65871       -0.01741
C        110.20394       90.49728        0.97996
C        111.20043       89.94398        2.00903
C        109.88941       89.40859       -0.06673
H        112.00842       90.84358       -1.04861
H        110.86308       92.55523        1.18081
H        109.25935       90.71505        1.52648
H        110.78767       89.02644        2.48044
H        112.16913       89.68544        1.53089
H        111.38247       90.69105        2.80983
H        109.14935       89.77261       -0.80934
H        110.79925       89.07025       -0.60412
H        109.45516       88.52097        0.43861
N        109.83858       92.76525       -1.84029
C        108.78832       93.29646       -2.70413
C        108.50872       92.37215       -3.87754
O        107.65164       92.70949       -4.67826
C        109.18194       94.67946       -3.26207
C        109.41507       95.71584       -2.19461
N        108.43359       96.06680       -1.33266
O        110.49936       96.27005       -2.12545
H        110.76646       92.60926       -2.25322
H        107.83069       93.40363       -2.14775
H        108.36410       95.05662       -3.91515
H        110.09635       94.56963       -3.88718
H        107.50345       95.62792       -1.37830
H        108.60582       96.79074       -0.61916
N        109.16937       91.18564       -4.04704
C        108.91758       90.34128       -5.21023
C        109.40275       88.92173       -5.01244
O        110.26336       88.69683       -4.18296
C        109.55966       90.97188       -6.48121
C        111.06084       91.25196       -6.36722
C        111.53956       92.57502       -6.44171
C        112.00252       90.21589       -6.20867
C        112.91164       92.84776       -6.35170
C        113.36962       90.48942       -6.10784
C        113.83061       91.80389       -6.17916
O        115.15380       92.04915       -6.08426
H        109.83709       90.86807       -3.33547
H        107.81540       90.24747       -5.32538
H        109.03528       91.92948       -6.68175
H        109.37742       90.32022       -7.36224
H        110.85326       93.40143       -6.57152
H        111.69772       89.18969       -6.16713
H        113.25999       93.87118       -6.41161
H        114.07271       89.67478       -5.97885
H        115.51870       92.94444       -6.12738
N        108.91524       87.93650       -5.83417
C        109.37456       86.54931       -5.91673
C        108.96902       85.64944       -4.74348
O        108.32675       84.63852       -4.99229
C        110.88237       86.52064       -6.23480
C        111.38802       85.14199       -6.66690
C        112.81865       85.24131       -7.11767
O        113.11960       84.96535       -8.26842
O        113.77316       85.65389       -6.26164
H        108.21129       88.21627       -6.53316
H        108.87298       86.11406       -6.81287
H        111.47862       86.88256       -5.37042
H        111.04299       87.20548       -7.09736
H        110.76687       84.77636       -7.51479
H        111.30973       84.41838       -5.82885
N        109.34130       85.90687       -3.45855
C        109.13223       84.98808       -2.34285
C        107.66932       84.71810       -2.01151
O        107.42601       83.85646       -1.17623
C        109.83323       85.51780       -1.06192
C        111.32064       85.90572       -1.21617
C        112.17707       84.77530       -1.69760
O        112.04191       84.33544       -2.82756
O        113.12788       84.26564       -0.89640
H        109.86759       86.74943       -3.27074
H        109.59209       84.01703       -2.62527
H        109.75505       84.74544       -0.26421
H        109.29313       86.42281       -0.70958
H        111.68128       86.24550       -0.23031
H        111.46423       86.77249       -1.88991
N        106.64149       85.40211       -2.58825
C        105.26209       85.12138       -2.24962
H        104.58528       85.79085       -2.82068
H        105.01666       84.06716       -2.50119
H        105.09516       85.28837       -1.16361
H        106.82498       86.14851       -3.27230
Ca       115.10598       82.27379       -0.17220
O        118.00833       82.29969       -0.02811
H        117.86528       81.87170        0.85259
H        118.36281       81.57740       -0.60431
O        112.41291       81.28972       -2.24588
H        111.89013       81.56839       -3.03915
H        112.00929       81.79315       -1.49533
O        115.32495       83.53138       -3.02610
H        116.06297       83.46380       -3.68200
H        114.60869       84.01311       -3.50991
O        115.64118       80.38171       -2.57944
H        116.54323       80.26998       -2.18662
H        115.79536       80.40418       -3.55698

Ca 1.0



