%chk=apoCaM-CA-Ng.loop2.water3.frame621.chk
%nprocshared=20
%mem=10GB
%nosave
#b3lyp/svp scf=(tight,noincore,xqc) Test 
#IOP(5/87=12) Density=Current Pop=(MK,readradii) iop(6/33=2) iop(6/42=6)

apoCaM-CA-Ng.loop2.water3.frame621 

   -2  1 
C         70.07995       27.80698       87.24845
C         69.97555       28.99950       88.15585
O         68.88043       29.51881       88.31628
H         71.12007       27.42222       87.19981
H         69.41867       26.99633       87.61921
H         69.76298       28.09098       86.22201
N         71.08460       29.51335       88.76182
C         71.03747       30.69373       89.61833
C         70.32465       30.37225       90.91981
O         70.92219       29.72660       91.76854
C         72.47734       31.18130       89.91555
C         72.56457       32.41555       90.77746
O         71.56265       32.99073       91.17348
O         73.77670       32.88636       91.12542
H         71.99752       29.07595       88.56184
H         70.50520       31.49933       89.06371
H         72.99285       31.39330       88.95460
H         73.03404       30.36419       90.42661
N         69.04548       30.78528       91.14528
C         68.33542       30.51596       92.39465
C         67.25143       29.47670       92.15720
O         66.98940       29.17728       90.99938
C         67.75707       31.83911       92.90718
H         68.54032       31.27324       90.38837
H         69.04085       30.10725       93.14320
H         67.02564       32.24326       92.17225
H         67.24828       31.73285       93.87996
H         68.57423       32.58088       93.02888
N         66.57443       28.82368       93.14997
C         66.75753       28.94335       94.60057
C         68.14915       28.58297       95.08366
O         68.79469       27.71826       94.51052
C         65.75015       28.02296       95.33993
C         65.80699       26.58279       94.84466
O         64.82686       26.10189       94.29822
O         66.93411       25.83894       94.96832
H         65.85473       28.16106       92.82513
H         66.53425       29.97903       94.92147
H         64.73032       28.42869       95.15584
H         65.92435       28.06695       96.43927
N         68.63909       29.18841       96.20290
C         69.88178       28.80882       96.85109
C         70.95739       29.83556       96.61275
O         70.72237       30.78452       95.87742
H         68.09316       29.94549       96.64350
H         70.25942       27.83841       96.46826
H         69.67649       28.69298       97.93807
N         72.19623       29.72933       97.16834
C         72.61043       28.71064       98.13163
C         73.77946       27.89038       97.59598
O         74.45920       27.24959       98.38657
C         73.00905       29.44674       99.42834
C         71.86846       30.30088       99.92891
N         71.96743       31.65108       99.91806
O         70.83845       29.77130      100.31911
H         72.89171       30.45481       96.92856
H         71.79710       28.00201       98.39063
H         73.88934       30.08999       99.21090
H         73.30144       28.72871      100.22647
H         72.81774       32.11505       99.56596
H         71.18187       32.23765      100.23531
N         74.07227       27.85115       96.26130
C         75.24718       27.18470       95.71665
C         75.32214       25.67643       95.91100
O         76.34394       25.12011       95.53612
H         73.47603       28.36270       95.59430
H         76.14311       27.64520       96.18534
H         75.29891       27.38443       94.62371
N         74.31359       24.94173       96.46408
C         74.39477       23.49406       96.69773
C         73.37864       22.75665       95.84108
O         72.64935       23.38861       95.08925
C         74.19583       23.20457       98.20792
C         75.40554       23.66554       99.02827
O         73.03181       23.85054       98.66084
H         73.43922       25.41565       96.73173
H         75.38432       23.08886       96.39056
H         74.11370       22.10611       98.38077
H         72.58016       23.23798       99.29812
H         75.69242       24.70955       98.78800
H         75.17899       23.59580      100.11321
H         76.27235       23.00059       98.81660
N         73.30298       21.39227       95.88668
C         72.43977       20.61135       95.00945
C         71.17556       20.19371       95.74325
O         71.24396       19.46500       96.72253
C         73.18181       19.35340       94.46597
C         72.23383       18.53112       93.54508
C         74.47115       19.74745       93.72135
C         72.84495       17.24281       93.00067
H         73.91185       20.87803       96.53992
H         72.15932       21.22861       94.12750
H         73.47259       18.72590       95.33886
H         71.90444       19.15938       92.69123
H         71.32759       18.23133       94.11387
H         75.12506       20.38104       94.35520
H         75.06389       18.84288       93.47273
H         74.23343       20.29650       92.78590
H         72.08478       16.71346       92.38791
H         73.71255       17.45535       92.34509
H         73.15626       16.58141       93.83636
N         69.97277       20.60131       95.25790
C         68.66810       20.19662       95.74097
C         67.81208       19.54633       94.64084
O         66.74691       19.06042       94.99575
C         67.96999       21.42729       96.36256
C         67.93439       22.61448       95.44422
O         68.66707       23.70506       95.74257
O         67.26310       22.59411       94.42832
H         69.97539       21.26027       94.49226
H         68.78438       19.43689       96.54325
H         68.56062       21.72579       97.25381
H         66.93858       21.18751       96.69815
N         68.16059       19.49981       93.30847
C         67.29252       18.86504       92.31052
C         67.57908       19.32888       90.87467
O         68.00828       18.52704       90.05526
C         67.33934       17.31695       92.44102
C         66.34771       16.65437       91.50087
C         66.78208       15.75601       90.50743
C         64.97479       16.94772       91.59927
C         65.86016       15.17571       89.62778
C         64.06024       16.37058       90.71538
C         64.50157       15.48622       89.72964
H         69.02212       19.95538       92.97964
H         66.25000       19.18672       92.50712
H         67.08519       17.01133       93.47644
H         68.37541       16.96610       92.23248
H         67.83176       15.50963       90.40606
H         64.60898       17.63173       92.35319
H         66.19815       14.48869       88.86243
H         63.00848       16.61342       90.79415
H         63.78973       15.04260       89.04532
N         67.25505       20.59206       90.45675
C         67.30122       21.01961       89.06592
C         68.71261       21.30352       88.59009
O         68.89475       21.55074       87.40590
C         66.39759       22.25610       89.05726
C         66.67574       22.85466       90.41913
C         66.71242       21.61970       91.31197
H         66.85232       20.25032       88.39894
H         66.51949       22.94001       88.19048
H         65.33959       21.90771       89.08259
H         67.69432       23.29551       90.37443
H         65.96003       23.62645       90.76138
H         67.36802       21.82029       92.17726
H         65.69636       21.31137       91.63834
N         69.76277       21.27609       89.45274
C         71.14505       21.38040       89.03044
C         71.50716       20.07349       88.34618
O         72.00711       20.08890       87.23019
C         72.07441       21.62083       90.23885
C         71.84767       22.95949       90.99126
C         70.55425       23.07040       91.76460
O         69.72375       24.12886       91.63413
O         70.28398       22.21103       92.56712
H         69.58441       21.10633       90.44770
H         71.28875       22.24861       88.34728
H         73.11693       21.64731       89.84795
H         72.01189       20.77467       90.95451
H         71.95456       23.82352       90.30349
H         72.66109       23.02364       91.74772
N         71.21391       18.88910       88.95914
C         71.46328       17.60096       88.35159
H         72.55339       17.44320       88.22317
H         71.05916       16.79612       89.00475
H         70.95143       17.53594       87.36759
H         70.75334       18.89822       89.88192
Ca        68.30205       25.01466       93.26148
O         71.09633       25.90982       94.39350
H         71.60034       26.75127       94.52671
H         71.09482       25.47897       95.28458
O         69.80023       26.81734       91.37947
H         70.47247       26.30600       90.86415
H         70.34474       27.42162       91.93684
O         66.45356       26.07733       91.47850
H         66.61292       26.28569       90.52509
H         65.49749       25.82693       91.53157

Ca 1.0



