%chk=apoCaM-CA-Ng.loop3.water3.frame818.chk
%nprocshared=20
%mem=10GB
%nosave
#b3lyp/svp scf=(tight,noincore,xqc) Test 
#IOP(5/87=12) Density=Current Pop=(MK,readradii) iop(6/33=2) iop(6/42=6)

apoCaM-CA-Ng.loop3.water3.frame818 

   0  1 
C         74.66762       95.96749       88.19968
C         75.06658       97.19638       88.97530
O         75.73717       97.07498       89.98792
H         73.77542       96.14351       87.56196
H         75.50098       95.74790       87.49647
H         74.54304       95.07536       88.84668
N         74.87996       98.42064       88.41212
C         75.63353       99.60698       88.83188
C         75.12880      100.22938       90.16332
O         73.99920       99.94779       90.53843
C         75.60379      100.60112       87.63176
C         76.84214      101.43714       87.43975
O         77.39748      101.44062       86.35133
O         77.35267      102.18352       88.42550
H         74.35885       98.43992       87.51868
H         76.67021       99.24732       88.95428
H         74.66168      101.19499       87.65193
H         75.56300      100.01598       86.68022
N         75.89275      101.10618       90.90713
C         75.40158      101.84235       92.09475
C         75.27420      103.36141       91.82301
O         74.69302      104.05005       92.65228
C         76.27179      101.55718       93.36199
C         76.16639      100.07231       93.79784
C         76.87949       99.69856       95.11897
C         76.15811      100.23041       96.37461
N         76.80685       99.74525       97.59751
H         76.85997      101.28091       90.60867
H         74.36489      101.51860       92.32954
H         75.92443      102.19882       94.20093
H         77.33287      101.83667       93.16016
H         76.59866       99.45723       92.98278
H         75.09865       99.78650       93.91651
H         77.93702      100.04478       95.09678
H         76.88401       98.58897       95.20465
H         75.08962       99.90129       96.38587
H         76.17718      101.33956       96.36338
H         77.83637       99.92994       97.55463
H         76.40856      100.25329       98.42157
H         76.63741       98.71681       97.72694
N         75.73893      103.93318       90.66782
C         75.53909      105.32170       90.23947
C         74.73856      105.36443       88.91732
O         74.04846      106.35111       88.70472
C         76.90424      106.07829       90.14580
C         77.85825      105.44430       89.16089
O         77.69954      105.63577       87.96796
O         78.82081      104.59722       89.57801
H         76.25513      103.34201       90.02544
H         74.93725      105.87379       91.00122
H         77.38274      106.09231       91.15705
H         76.75781      107.14729       89.84455
N         74.77244      104.34576       87.98986
C         73.99820      104.32423       86.74776
C         74.85879      104.43442       85.49276
O         74.28083      104.49616       84.41548
H         75.36543      103.52841       88.14874
H         73.28812      105.17800       86.71015
H         73.38520      103.39276       86.71212
N         76.22754      104.48607       85.54141
C         77.07671      104.81577       84.38741
C         78.53511      104.39299       84.58210
O         78.89850      103.89329       85.63622
C         77.07467      106.35491       84.15633
C         75.77458      106.85400       83.60296
N         75.32978      106.37053       82.41848
O         75.13233      107.70296       84.20402
H         76.68689      104.28756       86.43841
H         76.72267      104.25380       83.49566
H         77.83425      106.63996       83.40033
H         77.35503      106.88093       85.10419
H         75.87576      105.65850       81.90934
H         74.44536      106.69531       82.00557
N         79.43436      104.58411       83.56370
C         80.85984      104.29098       83.64812
C         81.15230      102.83373       83.85310
O         80.37307      101.98715       83.43330
H         79.10570      104.99745       82.67805
H         81.30971      104.88591       84.47293
H         81.36709      104.59059       82.70445
N         82.27600      102.46601       84.52692
C         82.52966      101.08181       84.88153
C         81.24724      100.57947       85.70235
O         80.99086      101.61064       86.67582
C         83.97008      100.96075       85.53593
C         85.13696      101.37562       84.60128
C         86.17652      102.21583       85.07139
C         85.23924      100.90200       83.26947
C         87.25865      102.57444       84.24380
C         86.30965      101.28039       82.44280
C         87.31851      102.11641       82.91908
O         88.32933      102.46583       82.08983
H         82.93020      103.19807       84.84979
H         82.58001      100.45626       83.97145
H         84.16359       99.89723       85.80199
H         84.03197      101.55281       86.48212
H         86.17099      102.58419       86.08844
H         84.49470      100.24842       82.84090
H         88.04857      103.20745       84.63583
H         86.36158      100.92391       81.41998
H         89.04391      103.06865       82.34553
N         81.55879       99.29672       86.36769
C         80.42275       98.53506       86.92994
C         80.09200       99.01789       88.33292
O         79.42816      100.02887       88.50370
C         79.14314       98.42484       86.03527
C         78.10969       97.42089       86.65001
C         79.43005       98.05770       84.56929
C         78.52850       95.93913       86.58687
H         81.96778       98.66505       85.64401
H         80.81121       97.49717       87.03437
H         78.68293       99.43111       86.00740
H         77.13096       97.51613       86.12774
H         77.92955       97.67828       87.71285
H         80.03497       98.83722       84.06232
H         79.96849       97.09241       84.48742
H         78.46577       97.98264       84.02116
H         79.49820       95.76006       87.08821
H         77.77891       95.30181       87.09996
H         78.59403       95.58635       85.53567
N         80.56095       98.30783       89.38964
C         80.25673       98.59667       90.78799
C         81.20226       97.90762       91.76988
O         81.24037       98.33748       92.91572
C         78.83774       98.11175       91.11005
O         78.79484       96.71554       90.90174
H         81.19948       97.55868       89.13593
H         80.37505       99.68926       90.94307
H         78.10645       98.64880       90.47228
H         78.57307       98.32802       92.17008
H         77.94200       96.48675       90.44977
N         81.94157       96.80521       91.43445
C         82.82911       96.11826       92.35175
C         83.97133       97.01806       92.77263
O         84.19674       98.02635       92.11476
C         83.40557       94.88887       91.63508
H         81.86534       96.37532       90.51231
H         82.22298       95.82444       93.23733
H         83.92001       95.21195       90.70060
H         84.14078       94.36189       92.25899
H         82.58556       94.19275       91.35087
N         84.72798       96.78037       93.88390
C         84.50964       95.70672       94.85451
C         85.84873       95.21531       95.40464
O         86.60440       96.05993       95.86577
C         83.70609       96.28453       96.02512
H         85.41786       97.50857       94.12954
H         83.89993       94.88443       94.43554
H         84.23649       97.14955       96.48080
H         82.70902       96.63546       95.68105
H         83.55479       95.50254       96.79993
N         86.23879       93.90618       95.48530
C         85.47338       92.74175       95.06128
C         85.64295       92.51733       93.57100
O         84.72896       91.99644       92.94510
C         85.92249       91.51494       95.89295
C         85.13217       90.22912       95.59531
C         85.44032       89.17329       96.61874
O         85.03072       89.33923       97.89959
O         86.04873       88.16239       96.29820
H         87.15019       93.72319       95.93725
H         84.40437       92.89055       95.32740
H         85.78361       91.78029       96.96470
H         87.00816       91.31821       95.73306
H         85.41178       89.86834       94.58292
H         84.03414       90.40335       95.62267
N         86.76108       92.95967       92.92296
C         86.94711       92.84898       91.49435
H         87.94011       92.38729       91.27859
H         86.14893       92.23556       91.01607
H         86.92345       93.87590       91.06918
H         87.51403       93.43148       93.44628
Ca        79.92281      103.10616       88.17268
O         81.75927      104.94300       87.27528
H         80.93213      105.51391       87.34320
H         82.01405      104.86188       88.24665
O         81.88216      102.08442       89.43990
H         82.09585      101.41101       90.12714
H         82.74280      102.45437       89.12356
O         79.20743      102.02147       90.96118
H         79.17296      102.96576       91.26414
H         79.36410      101.50343       91.79478

Ca 1.0



