%chk=apoCaM-CA-Ng.loop3.water3.frame833.chk
%nprocshared=20
%mem=10GB
%nosave
#b3lyp/svp scf=(tight,noincore,xqc) Test 
#IOP(5/87=12) Density=Current Pop=(MK,readradii) iop(6/33=2) iop(6/42=6)

apoCaM-CA-Ng.loop3.water3.frame833 

   0  1 
C         65.23511       93.22154       68.50381
C         65.79337       94.05463       67.39031
O         66.74792       93.63998       66.74912
H         64.17642       92.97238       68.27324
H         65.80280       92.27309       68.61098
H         65.27626       93.78530       69.45765
N         65.20312       95.23899       67.07370
C         65.59942       96.02937       65.90995
C         67.00349       96.62698       66.10288
O         67.50600       96.61462       67.21826
C         64.51671       97.11987       65.65656
C         64.29143       97.48559       64.20439
O         63.18482       97.33393       63.71398
O         65.27471       97.95320       63.42535
H         64.38564       95.52775       67.63403
H         65.58268       95.33905       65.05256
H         64.72797       97.99322       66.30142
H         63.52915       96.72357       65.98345
N         67.67325       97.20439       65.06576
C         68.92614       97.94847       65.19392
C         68.65484       99.42723       64.96046
O         69.10019      100.23066       65.76825
C         70.00923       97.43643       64.22199
C         70.49141       96.02147       64.58454
C         71.61097       95.49156       63.66510
C         72.91533       96.30776       63.75950
N         73.97973       95.69938       62.96046
H         67.25848       97.14877       64.13294
H         69.34892       97.86211       66.22048
H         70.87484       98.12626       64.30413
H         69.63914       97.46550       63.17602
H         69.63002       95.32890       64.52647
H         70.86117       96.01065       65.63317
H         71.25648       95.46484       62.61160
H         71.83406       94.44875       63.98065
H         73.24568       96.35467       64.82105
H         72.74909       97.34395       63.39657
H         73.69853       95.65680       61.95419
H         74.84548       96.28056       63.04504
H         74.18849       94.73635       63.31125
N         67.86650       99.85728       63.93068
C         67.49298      101.25557       63.73772
C         66.09824      101.56105       64.28755
O         65.68459      102.70504       64.19386
C         67.68253      101.65270       62.25695
C         66.82692      100.87810       61.29063
O         65.48893      100.99120       61.32309
O         67.34691      100.17604       60.43865
H         67.43958       99.16339       63.30482
H         68.17294      101.91309       64.32267
H         68.75134      101.48921       61.99814
H         67.46317      102.73384       62.12627
N         65.37020      100.62991       64.97308
C         64.12061      100.91125       65.66965
C         62.86880      101.00963       64.81505
O         61.81483      101.16440       65.41621
H         65.78368       99.70553       65.13915
H         64.23757      101.82503       66.29278
H         63.92651      100.07801       66.37551
N         62.86840      100.94693       63.44813
C         61.63709      101.06170       62.65717
C         61.50017       99.94509       61.62515
O         62.42362       99.17380       61.41987
C         61.58061      102.41674       61.91006
C         61.63440      103.61462       62.82506
N         62.78232      103.95384       63.44949
O         60.64007      104.30881       62.97296
H         63.76202      100.86472       62.95477
H         60.74943      101.00875       63.32533
H         60.61789      102.46561       61.35848
H         62.39928      102.49393       61.16170
H         63.63440      103.40963       63.28385
H         62.82965      104.77910       64.06437
N         60.34374       99.84332       60.90642
C         60.11896       98.93635       59.79001
C         60.27239       97.48317       60.15023
O         59.80523       97.07521       61.20511
H         59.56623      100.47881       61.14008
H         60.79334       99.19704       58.94596
H         59.07538       99.08345       59.43704
N         60.85640       96.61824       59.26779
C         61.01956       95.19862       59.56077
C         62.04625       94.99311       60.66425
O         62.60275       95.95578       61.16620
C         61.36213       94.38331       58.28193
C         60.21908       94.33255       57.28382
C         58.94644       93.87010       57.67828
C         60.41754       94.69842       55.94112
C         57.89742       93.79480       56.75972
C         59.36676       94.60630       55.01817
C         58.10428       94.15960       55.42439
O         57.10173       94.07890       54.52564
H         61.15819       96.97355       58.34684
H         60.06208       94.80463       59.95634
H         61.54429       93.32488       58.55268
H         62.29760       94.76766       57.81900
H         58.75411       93.56253       58.69680
H         61.38787       95.03659       55.60125
H         56.92601       93.44453       57.08731
H         59.53428       94.87766       53.98350
H         56.21550       93.77372       54.76944
N         62.29001       93.73059       61.12123
C         63.10673       93.37245       62.27466
C         64.55618       93.82490       62.12185
O         64.83198       95.01642       62.18622
C         62.46183       93.89076       63.59374
C         63.18693       93.37375       64.86251
C         60.95505       93.57414       63.65683
C         63.09457       91.86512       65.10420
H         61.80833       92.94541       60.66230
H         63.08451       92.26261       62.31410
H         62.54380       94.99310       63.60028
H         62.75982       93.89018       65.74988
H         64.25691       93.63541       64.80198
H         60.41509       94.05962       62.81656
H         60.76826       92.48290       63.59473
H         60.51894       93.97213       64.59707
H         63.64518       91.61409       66.03453
H         62.04100       91.54718       65.23977
H         63.55317       91.29301       64.27354
N         65.54312       92.91154       61.91209
C         66.95358       93.28749       61.79368
C         67.87551       92.24119       61.16772
O         69.03997       92.56574       60.98496
C         67.50904       93.65165       63.18091
O         67.45617       92.54657       64.04587
H         65.23953       91.93808       61.82878
H         67.02251       94.16769       61.11655
H         66.97253       94.51119       63.61857
H         68.56604       93.96986       63.08876
H         66.50984       92.44641       64.32941
N         67.47071       90.98557       60.81137
C         68.38594       90.01688       60.22631
C         68.87625       90.46110       58.85597
O         68.26483       91.34846       58.27530
C         67.66141       88.68230       60.08517
H         66.51215       90.67332       60.97430
H         69.24761       89.91058       60.92111
H         66.74710       88.79836       59.46543
H         68.30627       87.96466       59.57696
H         67.37546       88.29625       61.08754
N         69.99640       89.94768       58.26171
C         70.93729       89.01575       58.88274
C         71.49055       88.03234       57.85610
O         71.93520       88.48975       56.81216
C         72.10558       89.83128       59.44119
H         70.28064       90.37504       57.36564
H         70.49761       88.49246       59.74829
H         72.61434       90.40392       58.63610
H         71.73188       90.54896       60.20284
H         72.84265       89.15775       59.92895
N         71.60878       86.68653       58.07036
C         71.20330       85.97932       59.28016
C         69.69784       85.85178       59.35599
O         69.16086       85.91911       60.45324
C         71.86432       84.58546       59.33774
C         71.57917       83.86406       60.66781
C         72.34936       82.58043       60.76465
O         71.76246       81.51786       60.89057
O         73.69612       82.59875       60.73947
H         72.08464       86.13896       57.33464
H         71.59850       86.52406       60.16711
H         72.96384       84.73574       59.25346
H         71.52905       83.95669       58.48348
H         70.49147       83.65258       60.75586
H         71.88204       84.51086       61.51989
N         68.95360       85.66746       58.22606
C         67.50655       85.58034       58.22288
H         67.07313       85.66227       59.24160
H         67.09352       86.40620       57.60446
H         67.19426       84.61214       57.78096
H         69.42618       85.60801       57.31198
Ca        65.00859       98.07162       61.18837
O         65.68041       95.77671       59.16375
H         66.39717       95.39937       58.59441
H         64.93154       95.13423       59.08216
O         67.87447       96.84107       61.22693
H         68.50360       96.29843       60.68883
H         68.23249       97.76188       61.16968
O         64.85045       98.75562       58.21989
H         65.06900       99.67042       58.52963
H         63.87009       98.76758       58.08140

Ca 1.0



