%chk=apoCaM-CA-Ng.loop2.water3.frame119.chk
%nprocshared=20
%mem=10GB
%nosave
#b3lyp/svp scf=(tight,noincore,xqc) Test 
#IOP(5/87=12) Density=Current Pop=(MK,readradii) iop(6/33=2) iop(6/42=6)

apoCaM-CA-Ng.loop2.water3.frame119 

   -2  1 
C         48.32353       51.76335       10.59115
C         49.00332       50.57979        9.97090
O         49.40714       50.66076        8.81881
H         47.28900       51.48993       10.88319
H         48.88557       52.08515       11.49295
H         48.28280       52.61374        9.87680
N         49.18691       49.43805       10.69449
C         49.88260       48.27548       10.15020
C         49.15283       47.64784        8.97007
O         49.80847       46.98542        8.18004
C         50.20219       47.22979       11.24203
C         49.00854       46.61388       11.93119
O         47.86571       46.92342       11.63471
O         49.21223       45.70747       12.90544
H         48.86460       49.42335       11.67438
H         50.86537       48.64289        9.77559
H         50.82515       47.72263       12.01972
H         50.80514       46.41241       10.79087
N         47.80948       47.82182        8.77910
C         47.07349       47.36479        7.60361
C         47.55829       48.15782        6.40548
O         47.50719       49.37671        6.49912
C         47.12243       45.83422        7.45423
H         47.27181       48.34452        9.48428
H         46.00206       47.63188        7.74219
H         46.72516       45.35460        8.37332
H         46.48817       45.51684        6.59898
H         48.15038       45.45780        7.28055
N         48.06261       47.58264        5.27248
C         48.62722       48.38096        4.19134
C         50.09850       48.04594        4.06028
O         50.57051       47.75311        2.96912
C         47.84515       48.15825        2.88146
C         46.39641       48.52649        3.03360
O         46.04924       49.78401        3.36560
O         45.52743       47.68937        2.84912
H         48.09858       46.55808        5.17599
H         48.57829       49.46559        4.43235
H         47.92810       47.09154        2.57681
H         48.27993       48.78914        2.07545
N         50.89498       48.06844        5.16904
C         52.32275       47.81686        5.11258
C         53.07743       48.97725        4.50069
O         54.27284       48.84180        4.28290
H         50.47534       48.26193        6.08897
H         52.50242       46.87818        4.54421
H         52.72120       47.67567        6.14021
N         52.45753       50.16191        4.22314
C         53.13661       51.30288        3.62055
C         54.22498       51.84661        4.52266
O         54.32388       51.44439        5.67490
C         52.10893       52.42671        3.35402
C         51.03609       51.95559        2.40374
N         49.76078       51.80568        2.82610
O         51.32689       51.68775        1.24834
H         51.45728       50.26567        4.44121
H         53.59247       50.97483        2.66106
H         52.58765       53.33267        2.92554
H         51.65640       52.71977        4.33002
H         49.51495       51.99946        3.80287
H         49.02566       51.46898        2.18763
N         55.07049       52.80236        4.04574
C         56.06521       53.46767        4.86681
C         55.77730       54.94542        4.91669
O         54.89050       55.42139        4.21846
H         54.98414       53.09781        3.06125
H         57.08407       53.29199        4.46223
H         56.03827       53.08171        5.90903
N         56.46181       55.73620        5.78621
C         56.17039       57.16049        5.95100
C         54.74512       57.42119        6.48106
O         54.38810       58.58375        6.61179
C         57.23987       57.84361        6.85692
C         57.21369       57.39442        8.32915
O         58.52559       57.68152        6.30417
H         57.20511       55.29566        6.34785
H         56.25876       57.63939        4.95038
H         57.03674       58.93644        6.86859
H         58.87931       56.79320        6.57118
H         58.01193       57.91874        8.89586
H         56.24817       57.67246        8.79041
H         57.37213       56.30051        8.43091
N         53.88928       56.40462        6.82005
C         52.55324       56.58519        7.39477
C         51.48131       55.94977        6.50798
O         51.82534       55.35721        5.49326
C         52.53194       55.94872        8.82633
C         52.66010       54.39217        8.77994
C         53.63408       56.58201        9.69062
C         52.74081       53.72082       10.14913
H         54.20082       55.43611        6.71600
H         52.31857       57.66892        7.48496
H         51.56106       56.19750        9.30670
H         53.56356       54.07111        8.22589
H         51.77397       53.97913        8.25342
H         54.62948       56.27051        9.31906
H         53.55597       57.68983        9.67217
H         53.54669       56.26306       10.74827
H         52.75645       52.61834       10.01348
H         53.68512       54.00009       10.66236
H         51.87125       53.99862       10.77818
N         50.15946       55.98762        6.86861
C         49.11414       55.24290        6.16514
C         48.04359       56.18694        5.62230
O         46.86681       56.03035        5.91482
C         48.57471       54.17052        7.14096
C         47.64421       53.17751        6.50856
O         48.02303       52.50003        5.57156
O         46.41636       52.96522        7.00934
H         49.88878       56.50535        7.71875
H         49.55058       54.71377        5.28950
H         48.08453       54.65989        8.01122
H         49.44067       53.58646        7.52171
N         48.42026       57.20708        4.80322
C         47.51718       58.17814        4.17327
C         46.58490       58.84643        5.18182
O         47.05143       59.24191        6.23728
C         48.34648       59.21481        3.36792
C         49.40571       59.91004        4.20234
C         49.07114       60.89969        5.14358
C         50.75596       59.54174        4.05444
C         50.06064       61.47927        5.94281
C         51.74096       60.12179        4.85558
C         51.39344       61.08498        5.80439
H         49.42967       57.28855        4.61648
H         46.89538       57.63158        3.43527
H         47.69747       59.95915        2.85724
H         48.85148       58.63349        2.56489
H         48.04699       61.22500        5.26524
H         51.04476       58.78395        3.33641
H         49.79217       62.23065        6.67393
H         52.77240       59.81591        4.74469
H         52.15719       61.52738        6.42989
N         45.24450       59.00714        4.93438
C         44.28235       59.56958        5.87483
C         44.28835       58.88687        7.22847
O         44.28844       59.57386        8.24007
C         42.92954       59.32970        5.18589
C         43.29713       59.48870        3.73321
C         44.60604       58.70597        3.66610
H         44.47208       60.66208        5.97987
H         42.61348       58.26798        5.30917
H         42.10734       59.98385        5.54801
H         42.52564       59.16845        3.00128
H         43.51854       60.56906        3.56620
H         44.44278       57.60842        3.59593
H         45.17767       59.08196        2.78963
N         44.29079       57.52486        7.31378
C         44.21017       56.79337        8.57887
C         45.35854       57.10876        9.53072
O         45.23714       56.79159       10.70625
C         44.17724       55.27050        8.32305
C         42.93453       54.82915        7.53151
C         42.99034       53.36505        7.20949
O         42.95311       52.99530        6.04641
O         43.07084       52.45242        8.19644
H         44.33156       56.99519        6.43095
H         43.26717       57.10160        9.08327
H         44.18157       54.72345        9.29190
H         45.09880       54.99756        7.76649
H         42.85180       55.38826        6.57686
H         42.02468       55.03479        8.13309
N         46.50054       57.71688        9.11112
C         47.56803       58.07784       10.01646
H         48.40159       58.54424        9.44832
H         47.19384       58.81457       10.75944
H         47.95009       57.17728       10.54029
H         46.62941       57.92489        8.11844
Ca        45.23341       51.27101        6.09449
O         43.03649       49.73128        4.74162
H         42.20860       49.39591        5.16824
H         43.28356       49.02848        4.08980
O         45.22777       50.17169        8.84245
H         45.30673       49.72845        9.72345
H         45.65800       51.05428        8.96852
O         45.58864       52.73867        3.49715
H         46.30166       53.39640        3.29998
H         44.80070       53.06138        2.99234

Ca 1.0



