%chk=apoCaM-CA-Ng.loop3.water2.frame536.chk
%nprocshared=20
%mem=10GB
%nosave
#b3lyp/svp scf=(tight,noincore,xqc) Test 
#IOP(5/87=12) Density=Current Pop=(MK,readradii) iop(6/33=2) iop(6/42=6)

apoCaM-CA-Ng.loop3.water2.frame536 

   0  1 
C         75.84593        6.13634       76.64454
C         75.51546        5.62389       78.01248
O         74.55829        4.87666       78.15963
H         76.86485        5.79284       76.36358
H         75.12375        5.75128       75.89386
H         75.82063        7.24511       76.64202
N         76.30524        5.96172       79.06791
C         76.10611        5.41340       80.40094
C         74.78580        5.88769       80.99531
O         74.62262        7.08153       81.20664
C         77.32708        5.75278       81.27974
C         77.33640        4.96444       82.54233
O         77.91329        5.39350       83.52413
O         76.95403        3.68232       82.53084
H         77.12008        6.57032       78.88989
H         76.07705        4.31749       80.28696
H         77.38168        6.84378       81.48970
H         78.25008        5.46695       80.73448
N         73.76569        5.00195       81.21205
C         72.41290        5.42752       81.57838
C         72.29035        5.90385       83.02649
O         71.29383        6.53224       83.34989
C         71.41556        4.30093       81.23135
C         69.93848        4.72698       81.27512
C         69.04786        3.64862       80.64005
C         67.58063        4.08549       80.57603
N         66.77192        3.07819       79.88863
H         73.92518        4.01060       80.97105
H         72.16537        6.28244       80.90962
H         71.59535        3.41948       81.88004
H         71.63460        4.00359       80.18140
H         69.82219        5.65750       80.67831
H         69.61729        4.92474       82.32005
H         69.11939        2.70628       81.21527
H         69.40161        3.45849       79.60277
H         67.50436        5.04749       80.02200
H         67.19057        4.23889       81.60649
H         66.82408        2.16342       80.39295
H         65.77690        3.39686       79.85849
H         67.11256        2.95724       78.90713
N         73.26662        5.65695       83.94520
C         73.26523        6.18860       85.30967
C         74.45397        7.12635       85.45851
O         74.24487        8.27648       85.82406
C         73.13634        5.05825       86.37523
C         73.98305        3.83976       86.14689
O         75.31682        3.89472       86.20836
O         73.45168        2.79513       85.80242
H         74.07182        5.08335       83.65958
H         72.36961        6.82341       85.49343
H         72.08244        4.70684       86.31312
H         73.28763        5.45938       87.40042
N         75.71044        6.74751       85.10130
C         76.85795        7.64271       85.09441
C         77.98193        7.15218       85.97997
O         79.02087        7.79051       85.99388
H         75.85761        5.78943       84.76315
H         76.58643        8.66936       85.42039
H         77.23131        7.72399       84.05105
N         77.82981        6.05350       86.78064
C         78.83719        5.60353       87.72660
C         79.20146        4.14126       87.48351
O         78.59230        3.47674       86.66025
C         78.28298        5.77271       89.16194
C         77.97601        7.21192       89.52575
N         76.97747        7.90530       88.92402
O         78.63000        7.75228       90.40456
H         76.94111        5.54781       86.78916
H         79.76594        6.20566       87.62677
H         79.04287        5.39515       89.87845
H         77.36206        5.16274       89.29494
H         76.37403        7.47734       88.20949
H         76.78680        8.88212       89.19247
N         80.21955        3.58636       88.20331
C         80.62372        2.19007       88.14020
C         81.05488        1.74613       86.76095
O         81.82622        2.44294       86.11652
H         80.73783        4.18784       88.85945
H         79.80427        1.54207       88.52011
H         81.49157        2.05950       88.82251
N         80.64812        0.53348       86.28180
C         81.04630        0.00291       84.97807
C         80.37030        0.74069       83.83983
O         79.60669        1.66331       84.08652
C         80.78263       -1.52418       84.91614
C         81.83980       -2.27569       85.69342
C         81.52211       -3.03896       86.82718
C         83.17801       -2.22480       85.25581
C         82.52982       -3.73026       87.51407
C         84.17828       -2.91413       85.93994
C         83.85844       -3.67017       87.07364
O         84.81706       -4.34287       87.74204
H         80.07331       -0.06158       86.89893
H         82.13444        0.17223       84.83216
H         80.85119       -1.91208       83.87974
H         79.75223       -1.74088       85.27254
H         80.50083       -3.09805       87.18050
H         83.44926       -1.65427       84.37567
H         82.27876       -4.31561       88.38909
H         85.20012       -2.86071       85.58422
H         85.74444       -4.32669       87.46316
N         80.69002        0.41318       82.54807
C         80.29717        1.16038       81.35710
C         78.79191        1.16898       81.11378
O         78.05328        1.56017       81.99441
C         80.85039        2.62553       81.43546
C         80.55803        3.46417       80.15993
C         82.35878        2.64387       81.75868
C         81.22428        2.95841       78.87586
H         81.34802       -0.36420       82.38960
H         80.78949        0.67783       80.48634
H         80.34131        3.15524       82.26924
H         80.90533        4.50624       80.33540
H         79.46237        3.51091       79.99011
H         82.94469        2.09977       80.99011
H         82.72573        3.69040       81.82384
H         82.56017        2.16653       82.74026
H         80.87900        1.93979       78.61323
H         80.95655        3.63426       78.03698
H         82.32920        2.95940       78.96979
N         78.28581        0.91037       79.87257
C         76.95689        1.38711       79.47435
C         75.75486        0.71522       80.13129
O         74.66037        1.24128       79.97382
C         76.80075        1.35741       77.94369
O         77.79613        2.13864       77.33270
H         78.93176        0.57924       79.14158
H         76.92311        2.45063       79.76442
H         75.81740        1.78464       77.65101
H         76.82337        0.30783       77.56887
H         78.51779        1.52422       77.03852
N         75.84293       -0.44537       80.83510
C         74.66519       -1.09803       81.41242
C         74.10801       -0.30460       82.58174
O         74.87869       -0.02623       83.48877
C         75.02928       -2.49857       81.90854
H         76.76097       -0.90751       80.91098
H         73.91152       -1.23906       80.62298
H         75.80022       -2.45187       82.70468
H         74.12438       -3.00145       82.31340
H         75.41890       -3.10559       81.06477
N         72.80307        0.08037       82.71188
C         71.70521       -0.13878       81.76958
C         71.39509       -1.61569       81.53651
O         71.09886       -2.28575       82.51688
C         70.42286        0.47937       82.36795
H         72.57630        0.59469       83.57972
H         71.92505        0.40619       80.83607
H         70.56596        1.55404       82.57845
H         69.55555        0.36368       81.69031
H         70.16082       -0.01043       83.33210
N         71.32906       -2.21606       80.30507
C         71.72727       -1.65452       79.01343
C         72.59674       -2.66733       78.28953
O         73.74704       -2.36794       77.99971
C         70.51702       -1.29607       78.12568
C         69.72834       -0.10380       78.67805
C         68.66735        0.33964       77.71376
O         67.76090       -0.41552       77.40172
O         68.71339        1.57884       77.18716
H         70.97059       -3.18399       80.29235
H         72.32005       -0.72879       79.12894
H         69.84498       -2.17095       77.98790
H         70.90948       -0.99513       77.12776
H         70.42487        0.74809       78.84355
H         69.25301       -0.37877       79.63759
N         72.10018       -3.89230       77.95166
C         72.88404       -4.87973       77.24378
H         73.78103       -5.15204       77.83837
H         72.27571       -5.79513       77.07768
H         73.19521       -4.47906       76.25589
H         71.12913       -4.13787       78.19571
Ca        76.12336        2.87096       84.41781
O         77.57251       -0.62998       84.04541
H         77.15971       -1.40991       84.49302
H         77.88648       -0.98116       83.17501
O         76.51365        0.44596       86.79725
H         76.21555       -0.48959       86.66916
H         76.37266        0.61990       87.76158

Ca 1.0



