%chk=apoCaM-CA-Ng.loop2.water2.frame836.chk
%nprocshared=20
%mem=10GB
%nosave
#b3lyp/svp scf=(tight,noincore,xqc) Test 
#IOP(5/87=12) Density=Current Pop=(MK,readradii) iop(6/33=2) iop(6/42=6)

apoCaM-CA-Ng.loop2.water2.frame836 

   -2  1 
C         57.65706      -22.99178       80.46789
C         57.10399      -24.30670       80.01091
O         57.09613      -25.25341       80.78506
H         58.50431      -22.69159       79.81866
H         56.85845      -22.22114       80.40901
H         58.00647      -23.05613       81.52045
N         56.57857      -24.41982       78.75969
C         55.92228      -25.62392       78.27144
C         54.45249      -25.28664       78.11605
O         53.89506      -25.40445       77.03310
C         56.60999      -26.08290       76.96385
C         56.07652      -27.37409       76.39467
O         55.09071      -28.05842       77.00805
O         56.55397      -27.81405       75.36107
H         56.58413      -23.58976       78.14555
H         56.00228      -26.44680       79.01555
H         57.69298      -26.23101       77.16693
H         56.50846      -25.28248       76.19790
N         53.77611      -24.79659       79.19624
C         52.38812      -24.35998       79.14522
C         52.24222      -23.25486       78.10326
O         52.91172      -22.24134       78.25025
C         51.95260      -23.83632       80.52099
H         54.28742      -24.70402       80.08800
H         51.76407      -25.24266       78.91769
H         52.58397      -22.97422       80.82971
H         50.89203      -23.51045       80.49654
H         52.05928      -24.63749       81.28345
N         51.45488      -23.36057       76.98955
C         50.59292      -24.50268       76.68336
C         50.23629      -24.58678       75.20194
O         50.58371      -23.70612       74.42842
C         49.33019      -24.48787       77.57696
C         48.49388      -23.25446       77.37838
O         47.21695      -23.36140       76.96583
O         48.95143      -22.15142       77.63503
H         51.50688      -22.58263       76.31486
H         51.17281      -25.43315       76.85555
H         49.61151      -24.53142       78.64798
H         48.71159      -25.38489       77.36672
N         49.62546      -25.70983       74.72936
C         49.42673      -25.98325       73.31599
C         48.03962      -26.50837       73.04487
O         47.92890      -27.69689       72.77748
H         49.40086      -26.46720       75.39373
H         50.13825      -26.80062       73.06418
H         49.67601      -25.12647       72.65823
N         46.90989      -25.75085       73.09295
C         46.84219      -24.31026       73.31477
C         47.40747      -23.56101       72.10634
O         46.98862      -23.84962       70.99350
C         45.35225      -23.93240       73.52205
C         45.11201      -22.52503       73.99317
N         43.84911      -22.09326       74.20529
O         46.04701      -21.77768       74.21581
H         46.01909      -26.25481       72.94773
H         47.37955      -24.05591       74.25431
H         44.92743      -24.59173       74.31013
H         44.78824      -24.10759       72.57959
H         43.04499      -22.71441       74.03796
H         43.67361      -21.13732       74.54162
N         48.32145      -22.55650       72.25345
C         48.88979      -21.80281       71.13573
C         48.42096      -20.35301       71.08183
O         48.89335      -19.62207       70.22336
H         48.61291      -22.29059       73.20402
H         48.62050      -22.26152       70.15977
H         49.99663      -21.83673       71.22362
N         47.45155      -19.88791       71.91812
C         46.86299      -18.55465       71.87729
C         46.95270      -17.88984       73.23965
O         46.55925      -18.48788       74.23243
C         45.37044      -18.64553       71.46759
C         45.20748      -19.04983       70.00318
O         44.67851      -19.56835       72.27115
H         47.05179      -20.53213       72.59745
H         47.36546      -17.90608       71.12545
H         44.90474      -17.63334       71.55198
H         44.33192      -19.07384       73.05703
H         44.12734      -19.07646       69.74355
H         45.70201      -18.30201       69.34613
H         45.64737      -20.05062       69.81391
N         47.38320      -16.60081       73.33999
C         47.34585      -15.84030       74.58798
C         45.90346      -15.76847       75.07308
O         45.05282      -15.29370       74.33227
C         47.92857      -14.40393       74.37707
C         47.77498      -13.47776       75.61813
C         49.40595      -14.46022       73.93576
C         48.47902      -13.96358       76.88563
H         47.68371      -16.12559       72.47638
H         47.97361      -16.35455       75.34518
H         47.35487      -13.91508       73.55765
H         46.69676      -13.34759       75.85310
H         48.17326      -12.47122       75.36389
H         49.52934      -15.01184       72.98289
H         49.79423      -13.43284       73.76979
H         50.03497      -14.96432       74.69779
H         48.05789      -14.93138       77.20668
H         49.57228      -14.06495       76.73465
H         48.31462      -13.22948       77.70159
N         45.56977      -16.19996       76.32408
C         44.21155      -16.14126       76.85918
C         44.12364      -15.03185       77.87944
O         43.21664      -14.21965       77.78476
C         43.79537      -17.45176       77.54870
C         44.18381      -18.68505       76.80490
O         43.79459      -18.90445       75.67038
O         44.98920      -19.54676       77.45201
H         46.32047      -16.54667       76.93835
H         43.48006      -15.95175       76.04061
H         42.69762      -17.43782       77.72992
H         44.29546      -17.52262       78.53950
N         45.05756      -14.93838       78.87747
C         45.07438      -13.89425       79.89549
C         46.32077      -14.04828       80.77821
O         47.40724      -13.86682       80.24725
C         45.10177      -12.49033       79.23403
C         45.30435      -11.37496       80.22610
C         46.41909      -10.52921       80.10160
C         44.39622      -11.16908       81.27737
C         46.62403       -9.49550       81.01634
C         44.60931      -10.13741       82.19586
C         45.72171       -9.30086       82.06478
H         45.80938      -15.64297       78.90744
H         44.14629      -13.99142       80.48745
H         44.15706      -12.28461       78.69638
H         45.92143      -12.47534       78.48169
H         47.12969      -10.66907       79.29572
H         43.52978      -11.80816       81.38916
H         47.48414       -8.84750       80.91109
H         43.91178       -9.98627       83.00894
H         45.88481       -8.50104       82.77431
N         46.26699      -14.32904       82.12374
C         47.42517      -14.32014       83.01855
C         48.62083      -15.19102       82.66037
O         49.61420      -15.09582       83.36984
C         46.85096      -14.78598       84.36003
C         45.46054      -14.20723       84.31481
C         45.04130      -14.50840       82.87914
H         47.76965      -13.26246       83.07119
H         46.73617      -15.89525       84.34510
H         47.45703      -14.50072       85.24679
H         44.75855      -14.58015       85.08997
H         45.56258      -13.10238       84.42661
H         44.69414      -15.55654       82.74667
H         44.23995      -13.78622       82.62774
N         48.63227      -16.04697       81.59731
C         49.82082      -16.81851       81.23382
C         51.01039      -15.93738       80.84384
O         52.09462      -16.48022       80.68165
C         49.51134      -17.80318       80.08042
C         49.16038      -17.08418       78.76444
C         48.86550      -18.06124       77.66907
O         47.83446      -18.91739       77.78451
O         49.54659      -18.06901       76.65726
H         47.76963      -16.17871       81.05486
H         50.10931      -17.41829       82.12626
H         48.66761      -18.45940       80.38719
H         50.39965      -18.45076       79.90693
H         50.01129      -16.44042       78.45091
H         48.26945      -16.44269       78.90303
N         50.88366      -14.59162       80.63898
C         51.98220      -13.73247       80.24769
H         52.94084      -14.28258       80.14946
H         51.74540      -13.26104       79.27049
H         52.11059      -12.93381       81.00797
H         49.96913      -14.13374       80.73637
Ca        46.00566      -21.46611       76.90903
O         49.48806      -20.37932       74.87752
H         49.81174      -21.28933       75.08879
H         50.31492      -19.85002       74.75170
O         46.64442      -20.58369       79.92755
H         47.18212      -21.41448       79.95238
H         45.73760      -20.88379       79.66757

Ca 1.0



