%chk=apoCaM-CA-Ng.loop3.water6.frame1090.chk
%nprocshared=20
%mem=10GB
%nosave
#b3lyp/svp scf=(tight,noincore,xqc) Test 
#IOP(5/87=12) Density=Current Pop=(MK,readradii) iop(6/33=2) iop(6/42=6)

apoCaM-CA-Ng.loop3.water6.frame1090 

   0  1 
C         51.88883       83.50508        9.84801
C         52.20360       83.55548        8.37950
O         52.23218       84.64138        7.81921
H         52.64408       84.09482       10.40889
H         50.88153       83.93239       10.03272
H         51.90542       82.46309       10.23320
N         52.45997       82.40797        7.69256
C         52.79763       82.36503        6.27317
C         51.78395       81.54937        5.48261
O         52.07364       81.19876        4.34659
C         54.23441       81.82496        6.08255
C         54.43373       80.39291        6.50747
O         54.29231       80.03001        7.79605
O         54.76901       79.55655        5.68387
H         52.41416       81.51498        8.20455
H         52.80540       83.38618        5.83239
H         54.94540       82.46862        6.64321
H         54.49197       81.91321        5.00309
N         50.55076       81.25610        5.99473
C         49.54562       80.44943        5.31010
C         49.23136       81.01046        3.93073
O         49.16518       80.24908        2.97409
C         50.01480       78.97685        5.24718
C         50.23302       78.39299        6.65568
C         50.91632       77.01643        6.64511
C         52.38598       77.10773        6.18944
N         53.06143       75.81797        6.30572
H         50.28405       81.62758        6.91813
H         48.60699       80.49302        5.90738
H         50.95320       78.95405        4.66253
H         49.26802       78.34405        4.71819
H         49.23889       78.30821        7.14716
H         50.86014       79.06958        7.27510
H         50.34740       76.30381        6.00922
H         50.90906       76.63504        7.68928
H         52.91518       77.84427        6.83218
H         52.45545       77.45068        5.13650
H         52.59665       75.11208        5.69066
H         54.05710       75.93024        6.00502
H         53.04601       75.49327        7.29972
N         49.06509       82.35228        3.74992
C         48.74210       82.93898        2.45343
C         49.91329       83.67755        1.82315
O         49.75811       84.10072        0.68471
C         47.49070       83.83369        2.57979
C         47.66838       84.96086        3.56461
O         48.52943       85.80768        3.39126
O         46.87034       85.03921        4.64661
H         49.19704       82.98137        4.55664
H         48.49651       82.13486        1.72552
H         46.64065       83.20048        2.91458
H         47.22622       84.25824        1.58703
N         51.11321       83.86510        2.45360
C         52.21984       84.53690        1.78480
C         52.76868       83.71100        0.63645
O         52.39239       82.55364        0.51108
H         51.24615       83.56042        3.42709
H         53.04885       84.73069        2.49842
H         51.83377       85.50136        1.40730
N         53.63476       84.21623       -0.29039
C         54.10363       85.59898       -0.33640
C         55.17017       85.83818        0.72961
O         56.15477       85.11257        0.72389
C         54.69314       85.88660       -1.73814
C         54.99105       87.34951       -1.95347
N         53.99228       88.26502       -1.93784
O         56.13849       87.70835       -2.16941
H         53.90439       83.58743       -1.06467
H         53.22527       86.26472       -0.23271
H         53.95698       85.58820       -2.51659
H         55.61074       85.27520       -1.89049
H         53.01451       87.97989       -1.77934
H         54.19199       89.26317       -2.09759
N         55.09711       86.82542        1.66834
C         54.00607       87.77648        1.75492
C         54.18502       88.71316        2.91955
O         54.24912       88.24244        4.04754
H         55.87538       86.90447        2.34335
H         53.05473       87.24366        1.91876
H         53.93616       88.34771        0.80604
N         54.23230       90.06061        2.72326
C         54.31132       91.02352        3.81319
C         53.06732       91.88920        3.80645
O         52.53690       92.14598        2.73209
C         55.56454       91.90601        3.65591
C         55.74826       92.77634        4.87518
C         55.58825       94.16924        4.80327
C         56.06163       92.18297        6.11001
C         55.72241       94.95213        5.95507
C         56.20316       92.96625        7.25560
C         56.02827       94.35461        7.18358
O         56.14880       95.12047        8.28618
H         54.17246       90.42414        1.75847
H         54.36758       90.49095        4.78680
H         55.45325       92.51881        2.73282
H         56.47417       91.27858        3.53449
H         55.34107       94.64678        3.86359
H         56.19541       91.11072        6.18494
H         55.58224       96.02371        5.89411
H         56.44312       92.49071        8.19820
H         56.35250       94.74167        9.15352
N         52.56720       92.41664        4.96137
C         51.35914       93.24420        4.97988
C         51.44368       94.41738        4.01425
O         52.51029       94.77491        3.54158
C         50.96708       93.73991        6.41238
C         50.45932       92.60624        7.33367
C         52.12314       94.49734        7.09702
C         49.11353       92.03573        6.87500
H         53.04989       92.19585        5.84387
H         50.54591       92.61529        4.56624
H         50.12630       94.46419        6.32392
H         50.28352       93.02459        8.34933
H         51.21373       91.79566        7.42031
H         52.46086       95.34988        6.47241
H         51.78455       94.90507        8.07383
H         52.99061       93.83753        7.30074
H         48.75868       91.28201        7.60731
H         48.35306       92.84503        6.81757
H         49.19070       91.54158        5.88910
N         50.27676       95.00290        3.62760
C         50.18192       96.01226        2.57906
C         48.88808       95.81867        1.78528
O         48.16923       94.86400        2.02573
C         50.28752       97.40228        3.21947
O         49.23622       97.60762        4.12093
H         49.40478       94.65542        4.05164
H         51.02387       95.90621        1.86022
H         50.27140       98.18845        2.43409
H         51.26251       97.46695        3.75432
H         49.39358       98.50226        4.52043
N         48.52712       96.71332        0.81970
C         47.27807       96.64550        0.06740
C         46.06849       96.68083        0.99398
O         45.17544       95.85392        0.85119
C         47.26490       95.42787       -0.87342
H         49.14356       97.51291        0.62570
H         47.22733       97.55511       -0.57174
H         46.34341       95.43170       -1.49465
H         48.14224       95.46221       -1.55242
H         47.29473       94.47481       -0.30448
N         45.98032       97.61994        1.98447
C         44.82552       97.78120        2.86862
C         44.48432       96.54397        3.70288
O         43.44392       96.56003        4.34599
C         43.61035       98.23232        2.04366
H         46.76435       98.27979        2.10653
H         45.03480       98.60928        3.58203
H         43.29269       97.45655        1.31833
H         42.75260       98.45845        2.71307
H         43.86091       99.16256        1.49027
N         45.29562       95.44533        3.76144
C         44.93352       94.22872        4.48258
C         44.67842       94.52801        5.94630
O         43.57584       94.27072        6.41064
C         46.01458       93.13485        4.29391
C         45.59345       91.80854        4.95251
C         46.52242       90.66230        4.66443
O         47.60080       90.80318        3.87095
O         46.27614       89.56591        5.14034
H         46.19382       95.46191        3.27013
H         43.99605       93.83223        4.02978
H         46.99318       93.46861        4.70459
H         46.13676       92.96347        3.20123
H         44.58993       91.51842        4.57350
H         45.53529       91.94687        6.05326
N         45.64123       95.09473        6.72396
C         45.43370       95.43491        8.11777
H         44.41723       95.16398        8.47553
H         46.17751       94.90124        8.74389
H         45.56405       96.52929        8.25050
H         46.55887       95.31547        6.30899
Ca        48.81022       88.94251        3.45129
O         48.38459       90.33185        0.55922
H         47.45878       90.43040        0.22316
H         48.66449       91.25179        0.79514
O         51.28518       87.10167        4.23788
H         51.50203       87.45925        5.13485
H         51.93144       86.36414        4.10635
O         49.35017       88.82544        6.37466
H         48.46830       88.83109        6.82438
H         49.95717       88.38417        7.01954
O         51.21359       89.70277        2.03890
H         50.67263       90.48627        2.31128
H         51.21402       89.73391        1.05016
O         46.26065       87.77335        2.05391
O         49.03616       87.23658        0.80370
H         45.63516       88.10755        2.74456
H         49.09818       87.66063       -0.08816
H         45.83475       88.01520        1.19358
H         49.94460       86.88387        0.97346

Ca 1.0



