%chk=apoCaM-CA-Ng.loop3.water2.frame989.chk
%nprocshared=20
%mem=10GB
%nosave
#b3lyp/svp scf=(tight,noincore,xqc) Test 
#IOP(5/87=12) Density=Current Pop=(MK,readradii) iop(6/33=2) iop(6/42=6)

apoCaM-CA-Ng.loop3.water2.frame989 

   0  1 
C         51.75505      118.37751       62.62623
C         51.22748      119.68114       63.14783
O         50.12445      120.05930       62.78156
H         52.75375      118.14328       63.05178
H         51.05685      117.56270       62.91427
H         51.83590      118.41773       61.52124
N         51.94992      120.40914       64.04405
C         51.43465      121.62216       64.67635
C         51.24297      122.73867       63.65034
O         51.77150      122.63352       62.55172
C         52.38165      121.98510       65.85819
C         51.85165      122.86377       66.95763
O         52.62110      123.07302       68.04137
O         50.72736      123.32702       66.93579
H         52.86548      120.03665       64.34233
H         50.44377      121.36292       65.08376
H         53.33584      122.39439       65.46057
H         52.62126      121.04026       66.39211
N         50.45849      123.81935       63.93027
C         50.21792      124.92567       63.00233
C         50.84025      126.22609       63.50204
O         50.89033      127.18620       62.74673
C         48.70012      125.06300       62.72659
C         47.86507      125.47499       63.96097
C         46.36013      125.42614       63.65745
C         45.52913      125.81485       64.89066
N         44.09632      125.69703       64.61838
H         49.99523      123.85178       64.84035
H         50.71867      124.70249       62.03573
H         48.34059      124.07778       62.35563
H         48.53357      125.81312       61.92317
H         48.15519      126.49897       64.28273
H         48.05058      124.78355       64.80414
H         46.08912      124.38982       63.35761
H         46.12032      126.11338       62.81768
H         45.76612      126.86221       65.18221
H         45.78686      125.14694       65.74213
H         43.56043      125.98393       65.46942
H         43.82578      126.31763       63.82149
H         43.85558      124.70468       64.39048
N         51.33958      126.32015       64.76505
C         52.03553      127.47000       65.31954
C         53.40954      127.01787       65.85083
O         54.39957      127.62854       65.47291
C         51.12635      128.20025       66.33694
C         50.48257      127.30917       67.34990
O         49.26917      127.24735       67.46228
O         51.26769      126.57326       68.12766
H         51.20938      125.53055       65.40252
H         52.23124      128.24005       64.53918
H         50.30801      128.70291       65.77615
H         51.71893      128.98717       66.85173
N         53.55846      125.89593       66.62648
C         54.83962      125.30956       66.99491
C         54.98683      124.95337       68.46980
O         55.99173      124.32961       68.78141
H         52.73828      125.33991       66.86932
H         55.69366      125.95124       66.68681
H         54.92548      124.35407       66.43342
N         54.08668      125.32165       69.43747
C         54.30113      125.05433       70.86495
C         53.04222      124.45785       71.57974
O         52.01898      125.40469       71.69081
C         54.77001      126.36498       71.52339
C         56.07610      126.81003       70.90610
N         56.14336      127.93122       70.15152
O         57.07906      126.12972       71.06642
H         53.29652      125.91774       69.17638
H         55.11391      124.30463       70.99027
H         54.92118      126.23757       72.61620
H         53.98602      127.13811       71.36854
H         55.30517      128.50402       69.97766
H         57.03391      128.21194       69.71435
N         53.40890      124.00267       72.92757
C         52.28578      123.53454       73.75953
C         51.61881      122.28683       73.21989
O         52.31088      121.34388       72.86355
H         54.12547      123.24423       72.85819
H         51.54578      124.34992       73.92662
H         52.70083      123.28556       74.75781
N         50.25963      122.18836       73.20402
C         49.54348      121.01050       72.70930
C         49.66350      120.89757       71.20157
O         50.30805      121.72791       70.58102
C         48.05760      121.08142       73.15130
C         47.93803      120.78388       74.62639
C         48.19623      119.47939       75.08757
C         47.56854      121.77510       75.54762
C         48.09057      119.17209       76.44463
C         47.47375      121.46716       76.91066
C         47.73241      120.16714       77.36316
O         47.63295      119.88521       78.67797
H         49.71178      122.97224       73.59324
H         49.98977      120.08739       73.13876
H         47.42133      120.33116       72.63740
H         47.64394      122.07831       72.88969
H         48.47059      118.69526       74.39171
H         47.36693      122.78512       75.21487
H         48.28769      118.16079       76.77909
H         47.19896      122.23981       77.61691
H         47.80236      118.99815       79.02731
N         49.05549      119.85417       70.55774
C         49.07643      119.60998       69.11983
C         48.43415      120.77011       68.37021
O         48.95437      121.87683       68.40069
C         50.50694      119.26527       68.61498
C         50.54803      118.97905       67.09275
C         51.09513      118.08019       69.40204
C         49.68250      117.81778       66.59648
H         48.53335      119.17003       71.12330
H         48.45592      118.70290       68.94956
H         51.17140      120.13927       68.79073
H         51.60030      118.78618       66.78960
H         50.20460      119.88301       66.57139
H         51.16078      118.32246       70.48339
H         50.46625      117.17240       69.29113
H         52.12204      117.85306       69.04523
H         49.80112      117.72646       65.49571
H         49.99064      116.85841       67.05703
H         48.60879      118.00251       66.79986
N         47.27656      120.58818       67.67958
C         46.62106      121.67199       66.95055
C         45.11902      121.48931       66.72009
O         44.52600      122.39740       66.15810
C         47.34633      121.89701       65.61637
O         47.26764      120.73519       64.83262
H         46.89296      119.63732       67.66706
H         46.69104      122.59977       67.56008
H         48.40393      122.16643       65.83034
H         46.89125      122.74110       65.06045
H         48.14555      120.62437       64.38615
N         44.41962      120.38378       67.12514
C         42.98212      120.24993       66.91408
C         42.21184      121.26220       67.75891
O         42.81219      121.84956       68.64994
C         42.56635      118.82575       67.30073
H         44.89302      119.60309       67.58485
H         42.78197      120.40720       65.83262
H         42.78586      118.64149       68.37473
H         41.49926      118.64951       67.12815
H         43.13169      118.08932       66.69158
N         40.89150      121.56259       67.56832
C         40.08201      121.13217       66.43263
C         38.60229      121.11612       66.80923
O         38.12518      122.13921       67.28113
C         40.27834      122.13423       65.28859
H         40.50233      122.30862       68.16720
H         40.41290      120.15672       66.04617
H         39.67512      121.82892       64.40656
H         39.96965      123.15626       65.59823
H         41.34534      122.17115       64.98408
N         37.76229      120.05967       66.58229
C         38.14021      118.80146       65.94601
C         38.97451      117.88404       66.82859
O         39.43648      116.87089       66.32162
C         36.89161      118.03245       65.43687
C         36.02493      117.27373       66.47289
C         35.37346      118.11151       67.53921
O         36.11182      118.68590       68.50733
O         34.15731      118.20639       67.58132
H         36.76510      120.22912       66.77589
H         38.71590      119.06923       65.03224
H         37.25271      117.25354       64.72853
H         36.25546      118.72917       64.84816
H         36.62245      116.48011       66.96968
H         35.22393      116.76447       65.89269
N         39.17242      118.13542       68.15636
C         39.90695      117.24180       69.03229
H         40.75612      117.78654       69.49218
H         39.23364      116.88537       69.83945
H         40.30787      116.35380       68.49886
H         38.77113      118.97849       68.58835
Ca        50.80610      125.23317       69.81824
O         47.48245      125.05254       68.29036
H         47.77998      124.91763       67.35581
H         46.57309      125.43589       68.21110
O         48.08336      123.97998       71.00881
H         47.16523      123.65362       70.83199
H         48.02449      124.42424       71.89167

Ca 1.0



