%chk=apoCaM-CA-Ng.loop3.water3.frame892.chk
%nprocshared=20
%mem=10GB
%nosave
#b3lyp/svp scf=(tight,noincore,xqc) Test 
#IOP(5/87=12) Density=Current Pop=(MK,readradii) iop(6/33=2) iop(6/42=6)

apoCaM-CA-Ng.loop3.water3.frame892 

   0  1 
C         11.89068      -18.74959       -1.56350
C         11.99938      -19.04924       -3.02752
O         11.49993      -18.26511       -3.81941
H         12.37400      -17.77094       -1.35645
H         10.82163      -18.69666       -1.27171
H         12.39383      -19.52664       -0.95134
N         12.63810      -20.17221       -3.46270
C         12.84394      -20.48928       -4.87323
C         12.03193      -21.73935       -5.22710
O         11.50138      -22.36890       -4.32075
C         14.37743      -20.63376       -5.06720
C         14.93890      -20.64639       -6.45960
O         16.13475      -20.83929       -6.60580
O         14.18359      -20.44324       -7.54727
H         13.01349      -20.83098       -2.76201
H         12.46520      -19.65862       -5.49469
H         14.69802      -21.56125       -4.54410
H         14.88205      -19.78197       -4.56600
N         11.83266      -22.12678       -6.52147
C         11.00908      -23.26904       -6.91203
C         11.84737      -24.37767       -7.54246
O         11.45712      -25.52798       -7.39958
C          9.83462      -22.77214       -7.78652
C          8.95565      -23.90275       -8.35304
C          7.69501      -23.38582       -9.07148
C          6.62189      -22.88132       -8.08842
N          5.41908      -22.44499       -8.79806
H         12.23068      -21.56394       -7.27761
H         10.55479      -23.73433       -6.00872
H         10.22060      -22.17584       -8.64257
H          9.22983      -22.09613       -7.14595
H          8.64950      -24.61407       -7.55605
H          9.57167      -24.45558       -9.09516
H          7.25091      -24.23555       -9.63414
H          7.96931      -22.59445       -9.80373
H          7.00461      -22.03706       -7.47835
H          6.35043      -23.71322       -7.39976
H          5.03911      -23.22315       -9.38492
H          4.69177      -22.16743       -8.09941
H          5.63971      -21.62088       -9.40262
N         13.03323      -24.13529       -8.17666
C         13.93889      -25.20247       -8.61529
C         15.29416      -25.12593       -7.90428
O         16.06454      -26.06701       -8.04541
C         14.05440      -25.23129      -10.15866
C         14.36312      -23.88203      -10.73990
O         13.52910      -23.31433      -11.42651
O         15.48512      -23.23244      -10.40127
H         13.32521      -23.16253       -8.33365
H         13.52776      -26.19258       -8.31936
H         13.06586      -25.55037      -10.55707
H         14.80628      -25.98277      -10.48200
N         15.64701      -24.08126       -7.09445
C         16.83295      -24.07683       -6.25118
C         18.02467      -23.34809       -6.83745
O         19.01933      -23.24950       -6.13633
H         15.01425      -23.28177       -6.98164
H         17.15289      -25.11650       -6.01772
H         16.55904      -23.61393       -5.27796
N         18.04143      -22.88780       -8.12468
C         19.25181      -22.36279       -8.75990
C         19.00677      -21.03583       -9.47219
O         17.88151      -20.56686       -9.52573
C         19.72919      -23.40893       -9.79272
C         19.95726      -24.76435       -9.16578
N         20.88934      -24.93744       -8.20024
O         19.28811      -25.71771       -9.53644
H         17.21516      -23.02742       -8.71435
H         20.05490      -22.20605       -8.00883
H         20.67400      -23.08525      -10.27667
H         18.95214      -23.50641      -10.58463
H         21.46705      -24.14912       -7.87554
H         21.03415      -25.86545       -7.77522
N         20.04763      -20.40564      -10.09800
C         19.89244      -19.24780      -10.96676
C         19.37298      -18.02112      -10.25755
O         20.03204      -17.52379       -9.35680
H         20.99163      -20.81046      -10.02038
H         19.21743      -19.52958      -11.80270
H         20.87823      -18.98945      -11.41123
N         18.17744      -17.48263      -10.63080
C         17.58120      -16.30354      -10.01149
C         16.46047      -16.74169       -9.09043
O         16.26434      -17.93288       -8.91700
C         17.04704      -15.34090      -11.10340
C         18.11530      -14.71296      -11.96227
C         19.11643      -13.91634      -11.37981
C         18.08819      -14.86626      -13.35858
C         20.07361      -13.28617      -12.17972
C         19.04447      -14.23080      -14.15746
C         20.03822      -13.43838      -13.57295
O         20.94596      -12.82344      -14.35765
H         17.62232      -17.96940      -11.35135
H         18.31109      -15.77064       -9.36583
H         16.51516      -14.48818      -10.63718
H         16.30311      -15.88255      -11.72898
H         19.15006      -13.77040      -10.30778
H         17.31774      -15.46161      -13.83248
H         20.83500      -12.67166      -11.71599
H         19.00649      -14.34621      -15.23335
H         21.64168      -12.25763      -13.99329
N         15.70746      -15.80361       -8.43592
C         14.63634      -16.08707       -7.48735
C         13.51645      -16.88735       -8.14482
O         13.75620      -18.00263       -8.58674
C         15.18712      -16.77868       -6.20521
C         14.09500      -16.95570       -5.11980
C         16.40141      -16.02540       -5.62924
C         13.49562      -15.66066       -4.55801
H         15.91320      -14.80861       -8.59423
H         14.23124      -15.10079       -7.17490
H         15.54485      -17.79510       -6.47647
H         14.52772      -17.51905       -4.26630
H         13.27291      -17.55838       -5.54667
H         17.23250      -15.99919       -6.36468
H         16.14374      -14.97877       -5.36799
H         16.77929      -16.54523       -4.72304
H         12.98264      -15.07297       -5.34428
H         12.74038      -15.91220       -3.78523
H         14.27246      -15.03668       -4.07242
N         12.24975      -16.39913       -8.23018
C         11.15533      -17.19780       -8.77801
C         10.01349      -16.38724       -9.38018
O          9.05365      -17.00217       -9.81654
C         10.62557      -18.14950       -7.69044
O         10.05677      -17.43580       -6.62560
H         12.05369      -15.50254       -7.76126
H         11.54024      -17.82456       -9.61231
H         11.43810      -18.81288       -7.32643
H          9.85229      -18.82458       -8.11500
H         10.80899      -17.07815       -6.08726
N         10.02850      -15.02046       -9.45282
C          8.89633      -14.26591       -9.98024
C          8.65571      -14.56930      -11.45492
O          9.55871      -15.09360      -12.09452
C          9.16375      -12.77270       -9.79548
H         10.83690      -14.49275       -9.10815
H          8.00597      -14.55589       -9.38222
H          9.32796      -12.54293       -8.72179
H         10.06430      -12.46709      -10.37119
H          8.30741      -12.18582      -10.14112
N          7.46715      -14.33407      -12.09041
C          6.23445      -13.87871      -11.45126
C          5.40709      -13.03954      -12.42508
O          5.16252      -13.52185      -13.52236
C          5.41294      -15.11123      -11.05591
H          7.39508      -14.66623      -13.06551
H          6.43868      -13.33642      -10.51346
H          5.98714      -15.74012      -10.34244
H          4.46892      -14.79813      -10.55965
H          5.16400      -15.72933      -11.94536
N          4.85824      -11.82256      -12.12094
C          4.97415      -11.14853      -10.83146
C          6.34550      -10.53609      -10.59910
O          6.60620      -10.12394       -9.47721
C          3.89940      -10.04244      -10.67970
C          4.07500       -8.86069      -11.65693
C          3.01811       -7.81897      -11.43619
O          1.83902       -8.09448      -11.59103
O          3.36865       -6.56855      -11.07906
H          4.24216      -11.40883      -12.83683
H          4.75738      -11.90133      -10.04135
H          3.94250       -9.64635       -9.64038
H          2.89621      -10.50092      -10.82396
H          4.01401       -9.20117      -12.71040
H          5.07002       -8.39128      -11.50178
N          7.24477      -10.37747      -11.61513
C          8.53584       -9.74008      -11.44012
H          9.33814      -10.43863      -11.75427
H          8.58464       -8.83031      -12.07375
H          8.72485       -9.44169      -10.38705
H          7.00700      -10.68702      -12.56754
Ca        15.04376      -21.24656       -9.45792
O         12.02425      -20.33895      -10.41928
H         11.97791      -21.29493      -10.66920
H         11.55217      -19.86897      -11.15208
O         15.78444      -20.73392      -12.55689
H         16.77156      -20.77671      -12.49339
H         15.51522      -21.63505      -12.86622
O         14.27185      -18.06610      -11.52871
H         13.49586      -17.47833      -11.34773
H         14.07429      -18.47172      -12.40961

Ca 1.0



