%chk=apoCaM-CA-Ng.loop3.water6.frame376.chk
%nprocshared=20
%mem=10GB
%nosave
#b3lyp/svp scf=(tight,noincore,xqc) Test 
#IOP(5/87=12) Density=Current Pop=(MK,readradii) iop(6/33=2) iop(6/42=6)

apoCaM-CA-Ng.loop3.water6.frame376 

   0  1 
C         58.79456      114.77177       12.76948
C         60.25209      114.52109       13.01843
O         60.70439      114.67110       14.14199
H         58.27946      115.08235       13.70311
H         58.68218      115.57847       12.01383
H         58.31666      113.84643       12.38481
N         61.05478      114.14584       11.98587
C         62.49000      113.90128       12.08533
C         63.21720      115.16834       12.53471
O         64.04975      115.12211       13.43001
C         62.76160      112.65379       12.96600
C         64.18369      112.15411       12.94009
O         64.50962      111.06714       13.66501
O         65.03987      112.69978       12.26166
H         60.62565      114.04578       11.05230
H         62.84007      113.66845       11.05442
H         62.12330      111.82121       12.59758
H         62.47754      112.86475       14.01868
N         62.90612      116.35776       11.94247
C         63.55749      117.64068       12.22970
C         63.57120      118.06667       13.69449
O         64.27941      119.01484       14.00713
C         62.87547      118.76844       11.41573
C         61.38590      118.94378       11.81856
C         60.67328      120.09705       11.10081
C         60.67472      120.00766        9.56521
N         60.06295      118.77235        9.07230
H         62.17962      116.33401       11.21183
H         64.62009      117.53632       11.91783
H         62.94933      118.51719       10.33711
H         63.41595      119.72571       11.58272
H         61.31249      119.15295       12.90732
H         60.81819      118.00887       11.63632
H         61.15173      121.05513       11.39699
H         59.61979      120.11987       11.45889
H         61.71282      120.09013        9.17886
H         60.10407      120.87841        9.17370
H         60.63461      117.94251        9.34922
H         59.08914      118.67553        9.44041
H         60.02995      118.80721        8.02799
N         62.79708      117.46661       14.63668
C         62.79936      117.87176       16.03769
C         64.18038      117.62333       16.62212
O         64.73811      116.56892       16.36247
C         61.71669      117.07366       16.79285
C         61.39489      117.63689       18.15432
O         62.32635      117.70614       19.11749
O         60.26600      118.03528       18.39337
H         62.16337      116.71171       14.34732
H         62.51923      118.94716       16.10402
H         62.02162      116.00987       16.86335
H         60.77555      117.12105       16.20037
N         64.80208      118.54675       17.40780
C         66.14024      118.36003       17.96409
C         66.28944      117.20470       18.95233
O         67.39176      117.02426       19.44924
H         64.31811      119.43564       17.60206
H         66.42950      119.28975       18.50164
H         66.85860      118.21476       17.12906
N         65.24938      116.39245       19.29718
C         65.32667      115.28965       20.24648
C         64.95623      113.96813       19.57001
O         64.76853      112.98595       20.27440
C         64.35518      115.56611       21.41916
C         64.70701      116.81933       22.18804
N         65.04572      116.75504       23.49799
O         64.67374      117.90493       21.62878
H         64.32920      116.54820       18.88408
H         66.34662      115.17857       20.67694
H         64.39328      114.70408       22.11750
H         63.31263      115.65332       21.04238
H         65.07785      115.85353       23.99613
H         65.27914      117.61294       24.01982
N         64.86511      113.84794       18.21046
C         64.46591      112.61386       17.55379
C         62.98860      112.31415       17.72181
O         62.59118      111.19667       17.42088
H         65.12803      114.63177       17.60837
H         65.08587      111.78377       17.95527
H         64.66208      112.68112       16.46110
N         62.10524      113.26947       18.13462
C         60.68060      113.03616       18.33976
C         60.32054      113.45697       19.74294
O         60.68693      114.55362       20.14663
C         59.83228      113.83376       17.33170
C         58.35406      113.58561       17.55711
C         57.81598      112.29334       17.41377
C         57.50623      114.63889       17.93971
C         56.46139      112.05814       17.66284
C         56.15061      114.40061       18.18746
C         55.62503      113.10729       18.05408
O         54.32317      112.86037       18.30307
H         62.44992      114.22571       18.30753
H         60.43470      111.96240       18.19330
H         60.09486      113.52502       16.29988
H         60.05521      114.91401       17.44186
H         58.44470      111.46337       17.11830
H         57.89508      115.64229       18.06016
H         56.06333      111.05648       17.55856
H         55.51163      115.21999       18.49125
H         53.71288      113.55493       18.58896
N         59.56470      112.65394       20.53544
C         59.25556      112.99569       21.91669
C         60.55807      112.95974       22.68927
O         60.91512      113.95585       23.30133
C         58.16918      112.04834       22.50069
C         56.83508      112.12173       21.69477
C         57.90531      112.34802       23.98860
C         56.15241      113.49848       21.66859
H         59.21622      111.76481       20.14395
H         58.84166      114.02556       21.96843
H         58.53899      111.00100       22.43527
H         56.11764      111.39247       22.12877
H         57.00980      111.81349       20.64352
H         58.82318      112.20055       24.58981
H         57.57105      113.39475       24.13995
H         57.13090      111.65798       24.38573
H         55.89100      113.84226       22.68947
H         56.78855      114.26061       21.17460
H         55.20905      113.42987       21.08778
N         61.37167      111.86728       22.60656
C         62.71103      111.86420       23.17764
C         62.71055      111.81556       24.69210
O         63.73096      112.16514       25.26896
C         63.54938      110.70672       22.61373
O         62.98617      109.47569       22.97563
H         61.07161      111.07095       22.02378
H         63.20829      112.80357       22.85141
H         64.58813      110.77630       23.00810
H         63.57584      110.79616       21.50372
H         63.53835      108.78108       22.53136
N         61.63647      111.35240       25.40522
C         61.62237      111.22766       26.86223
C         61.74473      112.57584       27.56849
O         61.99976      112.59138       28.76434
C         62.72030      110.24631       27.31708
H         60.80018      111.02916       24.89871
H         60.65713      110.77448       27.17913
H         62.64706      110.06544       28.41002
H         62.59275      109.27191       26.79853
H         63.74067      110.62498       27.10877
N         61.54421      113.74831       26.89888
C         61.76292      115.06687       27.47745
C         60.47213      115.85878       27.54218
O         59.74133      115.89830       26.56276
C         62.78409      115.80724       26.61495
H         61.24220      113.72107       25.91517
H         62.19457      114.99685       28.49971
H         62.97623      116.81916       27.03142
H         63.74054      115.24299       26.59688
H         62.41572      115.90525       25.57282
N         60.16486      116.56400       28.67398
C         58.97532      117.39604       28.84929
C         57.69498      116.57925       28.96718
O         56.63033      117.18074       29.01836
C         58.86278      118.50465       27.77078
C         60.10924      119.40181       27.72729
C         59.90100      120.56426       26.79769
O         60.63292      120.72564       25.83527
O         58.91616      121.45149       27.03850
H         60.83385      116.54615       29.45851
H         59.06675      117.92792       29.82333
H         57.98686      119.14031       28.02968
H         58.67575      118.07902       26.76297
H         60.98730      118.80355       27.39816
H         60.31754      119.80794       28.74010
N         57.71481      115.22025       29.10129
C         56.51854      114.42125       29.27913
H         55.58911      115.02724       29.23687
H         56.47085      113.64940       28.48413
H         56.55907      113.91780       30.26848
H         58.61009      114.71308       29.12225
Ca        61.73463      119.40415       21.40814
O         63.42100      121.34270       22.96420
H         63.05443      121.12578       23.85778
H         62.79708      122.01854       22.59715
O         60.27279      116.78929       21.79851
H         59.67488      116.36753       22.46485
H         59.69638      116.93988       21.00786
O         60.75569      121.35897       19.17875
H         61.33261      122.15136       19.31884
H         59.98920      121.49965       19.78975
O         64.04329      120.59363       19.95211
H         64.93726      120.55632       20.37534
H         63.86340      121.55934       19.83113
O         58.93264      119.56358       22.29418
H         58.59615      120.33523       22.81470
H         58.14564      118.97443       22.17828
O         61.81702      117.98987       24.12701
H         61.74053      118.96117       24.29487
H         60.94201      117.62155       24.40778

Ca 1.0



