%chk=apoCaM-CA-Ng.loop2.water4.frame1472.chk
%nprocshared=20
%mem=10GB
%nosave
#b3lyp/svp scf=(tight,noincore,xqc) Test 
#IOP(5/87=12) Density=Current Pop=(MK,readradii) iop(6/33=2) iop(6/42=6)

apoCaM-CA-Ng.loop2.water4.frame1472 

   -2  1 
C         52.31337       60.18999       91.37295
C         53.60278       60.87427       91.73476
O         54.47699       60.19263       92.25020
H         51.56741       60.86072       90.90974
H         52.53852       59.37637       90.64939
H         51.86508       59.74272       92.28326
N         53.86130       62.18970       91.48126
C         52.93244       63.12717       90.84549
C         51.75080       63.53424       91.72534
O         50.78168       64.03926       91.17478
C         53.67387       64.39054       90.34812
C         54.59193       64.98838       91.38525
O         55.78135       65.10486       91.14018
O         54.13697       65.33571       92.60069
H         54.81365       62.51233       91.71060
H         52.51641       62.64452       89.93408
H         52.93793       65.14678       89.99627
H         54.29876       64.10831       89.47273
N         51.76232       63.40494       93.08198
C         50.63830       63.81328       93.92651
C         50.28077       65.28344       93.75433
O         49.11971       65.58557       93.51708
C         50.96047       63.55720       95.40582
H         52.60267       63.01507       93.53497
H         49.74769       63.19516       93.67449
H         51.84016       64.15050       95.73141
H         50.09305       63.84130       96.04145
H         51.17476       62.48083       95.57181
N         51.22919       66.24839       93.89857
C         50.93854       67.68267       93.93921
C         51.55746       68.49455       92.79447
O         51.32444       69.69619       92.78054
C         51.45699       68.24502       95.28937
C         52.92321       67.94417       95.46979
O         53.35205       67.52611       96.53330
O         53.71826       67.96648       94.38555
H         52.19817       65.93775       94.04811
H         49.84368       67.86321       93.88051
H         50.88969       67.81829       96.14443
H         51.30915       69.34656       95.31359
N         52.37156       67.95640       91.83762
C         53.01921       68.77172       90.81090
C         54.53426       68.72312       90.89003
O         55.08780       67.97748       91.68104
H         52.55144       66.94718       91.83717
H         52.72458       69.83732       90.90037
H         52.69974       68.41744       89.80753
N         55.27327       69.51362       90.06070
C         56.73486       69.46533       89.97435
C         57.48430       69.85130       91.25469
O         58.69273       69.65365       91.26051
C         57.22834       70.38541       88.82794
C         56.70462       69.97143       87.47427
N         57.05368       68.78085       86.93404
O         55.97629       70.72857       86.84988
H         54.75924       70.13135       89.41323
H         57.01997       68.41522       89.74123
H         58.33731       70.37945       88.76720
H         56.90537       71.42762       89.05139
H         57.68218       68.13885       87.43698
H         56.70755       68.50588       86.00281
N         56.90189       70.43584       92.34725
C         57.69998       70.81231       93.51528
C         58.10238       69.54890       94.31685
O         57.02525       69.21900       95.12665
H         55.90192       70.68263       92.32775
H         57.11766       71.48447       94.18323
H         58.56613       71.39620       93.15147
N         59.23632       69.62885       95.23853
C         60.27884       70.64741       95.09484
C         61.04791       70.49166       93.79796
O         61.12649       71.46257       93.05739
C         61.21232       70.59125       96.33132
C         60.41012       70.76305       97.63228
O         61.90237       69.36865       96.37527
H         59.63049       68.66737       95.35679
H         59.80459       71.65482       95.11723
H         61.94136       71.42962       96.23937
H         62.66758       69.49112       96.99564
H         59.84845       71.72069       97.62301
H         59.68800       69.92732       97.76357
H         61.09471       70.76068       98.50578
N         61.62445       69.30219       93.44682
C         62.37571       69.12045       92.20692
C         61.67289       68.11686       91.29492
O         60.95151       67.27806       91.81579
C         63.83506       68.64120       92.49789
C         63.87051       67.22488       93.14887
C         64.57171       69.67707       93.36512
C         65.27503       66.63722       93.28488
H         61.50942       68.49061       94.06842
H         62.42138       70.09748       91.69761
H         64.36365       68.57703       91.52256
H         63.30931       66.51131       92.51105
H         63.39343       67.24007       94.15141
H         65.63742       69.40333       93.49900
H         64.54876       70.67256       92.87475
H         64.09956       69.76006       94.36762
H         65.76531       66.57959       92.28980
H         65.90201       67.23209       93.97709
H         65.19975       65.60939       93.69975
N         61.86722       68.04718       89.94206
C         62.58519       69.02143       89.12560
C         63.84959       68.43353       88.53379
O         63.78525       67.46097       87.79616
C         61.66593       69.61054       88.02592
C         61.15152       68.61694       87.01157
O         61.45076       68.73912       85.83451
O         60.32709       67.61820       87.37869
H         61.43668       67.24888       89.45551
H         62.88752       69.89301       89.72389
H         62.24306       70.39618       87.48788
H         60.79426       70.10699       88.50289
N         65.04605       69.03605       88.79723
C         66.31100       68.65585       88.19037
C         67.33461       68.31813       89.26895
O         67.48780       69.10722       90.18950
C         66.80688       69.83227       87.32396
C         68.11193       69.50756       86.63676
C         68.12017       68.97257       85.33748
C         69.33325       69.71314       87.30260
C         69.33114       68.64257       84.72026
C         70.54055       69.38721       86.68016
C         70.53983       68.85005       85.39081
H         65.06062       69.85790       89.42047
H         66.16703       67.80811       87.49689
H         66.91698       70.76628       87.91779
H         66.02912       70.03555       86.55443
H         67.19093       68.79644       84.81017
H         69.35011       70.12422       88.30414
H         69.33261       68.22165       83.72334
H         71.47621       69.54802       87.19982
H         71.47593       68.59341       84.91237
N         68.15257       67.22024       89.18118
C         68.15704       66.26911       88.08913
C         66.95677       65.34024       88.16718
O         66.24166       65.24009       87.18066
C         69.54183       65.61393       88.19750
C         69.84272       65.63380       89.68098
C         69.24027       66.97480       90.11490
H         68.15366       66.76532       87.09446
H         69.66302       64.64310       87.67186
H         70.26966       66.33087       87.74948
H         69.30146       64.79638       90.14704
H         70.90946       65.49812       89.95750
H         68.90388       66.92066       91.17291
H         69.98092       67.79434       89.99073
N         66.67253       64.62859       89.29398
C         65.57032       63.69145       89.39695
C         66.16698       62.29233       89.42394
O         66.86533       61.97368       90.37584
C         64.76667       64.00308       90.67797
C         63.60431       63.03265       90.92097
C         62.91712       63.35410       92.21820
O         61.73537       63.65765       92.23169
O         63.60177       63.29422       93.37753
H         67.26885       64.71895       90.11992
H         64.88922       63.80431       88.53128
H         64.36851       65.04020       90.61060
H         65.45770       63.95551       91.54948
H         63.98207       61.99010       90.98645
H         62.88524       63.09812       90.07607
N         65.98997       61.39536       88.41127
C         65.25047       61.67988       87.19973
H         64.18911       61.90221       87.43662
H         65.71080       62.54058       86.66760
H         65.28297       60.80144       86.52149
H         66.43497       60.46800       88.49107
Ca        55.87755       67.51348       94.32859
O         54.82941       64.52159       95.58599
H         55.07136       63.98027       96.37866
H         54.06976       65.07719       95.88905
O         57.51897       66.31763       96.54336
H         57.40542       66.41072       97.52233
H         58.49651       66.37526       96.39744
O         58.16617       66.36495       92.35696
H         58.30536       66.16281       91.39782
H         58.34586       67.33406       92.43381
O         57.41318       64.03954       94.15528
H         56.85504       63.24756       93.95084
H         58.33446       63.68414       94.22673

Ca 1.0



