%chk=apoCaM-CA-Ng.loop1.water5.frame539.chk
%nprocshared=20
%mem=10GB
%nosave
#b3lyp/svp scf=(tight,noincore,xqc) Test 
#IOP(5/87=12) Density=Current Pop=(MK,readradii) iop(6/33=2) iop(6/42=6)

apoCaM-CA-Ng.loop1.water5.frame539 

   0  1 
C         95.68248       26.11776       32.22544
C         95.52789       26.04405       30.73357
O         96.51687       25.81620       30.05303
H         94.71462       26.33491       32.72513
H         96.06709       25.14995       32.60887
H         96.39937       26.92464       32.48545
N         94.30449       26.23701       30.15780
C         94.02229       26.21426       28.72172
C         94.24657       24.81748       28.13349
O         94.93995       24.01072       28.73678
C         94.86455       27.31297       28.00992
C         94.42102       27.76040       26.63897
O         93.25841       27.36054       26.09683
O         95.10028       28.57622       26.03668
H         93.50576       26.43989       30.77875
H         92.94145       26.46185       28.62547
H         95.91853       26.96859       27.94533
H         94.84632       28.23320       28.63372
N         93.66383       24.45802       26.95269
C         93.88838       23.20117       26.24147
C         93.39354       21.95650       26.96916
O         93.54922       20.88366       26.40043
C         95.37891       23.03234       25.86461
C         95.95120       24.25796       25.13846
C         97.41419       24.01460       24.74264
C         98.10597       25.27055       24.18840
N         97.48069       25.76886       22.96308
H         93.03570       25.12208       26.49030
H         93.31462       23.25329       25.28804
H         95.47979       22.14238       25.20396
H         95.98283       22.84623       26.77811
H         95.90645       25.13400       25.81993
H         95.34228       24.47112       24.23421
H         97.46731       23.18899       23.99902
H         97.98266       23.70393       25.64660
H         99.16668       25.01250       23.97358
H         98.09910       26.06999       24.96246
H         98.03522       26.58256       22.61132
H         97.47311       25.02209       22.23136
H         96.50780       26.09886       23.15234
N         92.78234       21.99220       28.19263
C         92.34373       20.78649       28.88613
C         90.82545       20.84495       29.05638
O         90.38090       21.74062       29.76037
C         93.08075       20.67839       30.23714
C         92.77004       19.39703       30.95942
O         93.01578       18.32313       30.43502
O         92.25140       19.42622       32.20092
H         92.60633       22.89282       28.65791
H         92.66730       19.90456       28.32127
H         92.82895       21.54774       30.88289
H         94.17689       20.70037       30.04789
N         89.93183       19.99873       28.44733
C         90.25187       18.92383       27.51857
C         89.72092       17.59655       27.99064
O         89.05834       16.91731       27.21886
H         88.92798       20.15797       28.62751
H         91.32628       18.78697       27.35483
H         89.82082       19.16323       26.52207
N         89.99496       17.14545       29.24548
C         89.65056       15.80075       29.69437
C         89.72075       15.67582       31.19917
O         90.76051       15.93295       31.77242
C         90.55536       14.74895       29.00522
C         92.00615       15.15216       28.76520
O         92.92654       15.41449       29.72389
O         92.37893       15.23486       27.60552
H         90.49077       17.77395       29.89444
H         88.59326       15.57661       29.42842
H         90.11987       14.58816       27.99403
H         90.48420       13.77204       29.53057
N         88.62545       15.27757       31.91143
C         88.63336       15.10266       33.35341
C         88.12481       16.34980       34.01883
O         87.10490       16.29811       34.69187
H         87.74092       15.08084       31.41816
H         89.65341       14.87216       33.72462
H         87.99396       14.22904       33.61071
N         88.79129       17.52479       33.84542
C         88.34822       18.80137       34.38612
C         89.42503       19.42448       35.26058
O         90.51057       18.86971       35.37975
C         87.92097       19.73154       33.21865
C         89.05148       20.04131       32.23187
O         86.86940       19.13446       32.50443
H         89.64660       17.52270       33.27410
H         87.45592       18.65544       35.03338
H         87.57662       20.71001       33.62304
H         86.04746       19.25206       33.04861
H         89.41602       19.12242       31.72765
H         88.66809       20.72102       31.44371
H         89.89758       20.54104       32.74642
N         89.17943       20.59151       35.92265
C         90.16005       21.23757       36.79502
C         90.49208       20.35743       38.00352
O         91.54184       20.55762       38.59380
C         89.65725       22.65576       37.22304
C         89.43192       23.59754       36.00186
C         90.56791       23.34292       38.25824
C         90.69881       23.96918       35.22067
H         88.25458       21.02917       35.79689
H         91.10141       21.35204       36.21523
H         88.66878       22.52074       37.71727
H         88.96753       24.54045       36.36357
H         88.71345       23.14221       35.28998
H         91.60323       23.45572       37.87701
H         90.16102       24.34317       38.51800
H         90.60078       22.76295       39.20274
H         91.18717       23.07469       34.78523
H         90.42597       24.64619       34.38406
H         91.42227       24.50930       35.86468
N         89.66808       19.34145       38.39762
C         89.99572       18.41158       39.47841
C         88.93071       18.43062       40.57010
O         87.96070       19.16339       40.46517
C         90.22837       16.99907       38.88182
C         89.04574       16.46154       38.06617
O         91.36442       17.04935       38.05742
H         88.77980       19.19648       37.90140
H         90.94393       18.70502       39.97875
H         90.42019       16.29451       39.72236
H         91.82605       16.17359       38.13551
H         88.12406       16.42604       38.68246
H         88.86394       17.08557       37.16649
H         89.27906       15.43607       37.71062
N         89.08492       17.63295       41.67167
C         88.15691       17.59349       42.79579
C         88.92138       17.90240       44.07730
O         88.60109       18.88757       44.73130
C         87.42909       16.22031       42.82687
C         86.43592       16.11294       43.98662
O         88.33412       15.14931       42.90981
H         89.90723       17.01868       41.72204
H         87.36381       18.36427       42.67061
H         86.83011       16.12787       41.88882
H         88.57451       14.89269       41.98111
H         85.68070       16.92462       43.92811
H         85.90846       15.13610       43.93625
H         86.96189       16.17367       44.96324
N         89.93784       17.09815       44.50088
C         90.70955       17.32891       45.71367
C         92.15927       16.94086       45.48906
O         92.43526       15.82402       45.06796
C         90.10722       16.54563       46.89777
C         90.96406       16.71728       48.17035
C         90.33539       16.05581       49.39828
C         91.30927       16.10883       50.58675
N         90.71747       15.51268       51.78279
H         90.16425       16.25543       43.95380
H         90.65934       18.40291       46.00443
H         90.03448       15.46439       46.65082
H         89.08161       16.93553       47.08316
H         91.11555       17.79840       48.38775
H         91.95730       16.25105       47.99125
H         90.10547       14.99194       49.17446
H         89.39020       16.58405       49.65265
H         91.59191       17.16301       50.80464
H         92.23491       15.54913       50.32109
H         89.88773       16.07235       52.08570
H         90.42984       14.52559       51.59137
H         91.42678       15.51492       52.55134
N         93.14417       17.80359       45.84883
C         94.56196       17.49241       45.75268
C         94.99901       17.40703       44.29383
O         95.52165       16.36455       43.92669
C         95.38850       18.49670       46.58827
C         95.06630       18.34776       48.08990
C         95.73181       19.41475       48.90702
O         94.98168       20.25975       49.64110
O         96.94730       19.52119       48.91757
H         92.86694       18.70583       46.26632
H         94.75331       16.49972       46.22502
H         95.16696       19.53316       46.28025
H         96.47523       18.30815       46.44331
H         95.39683       17.34711       48.44596
H         93.97185       18.42488       48.26068
N         94.81900       18.39817       43.36962
C         94.16998       19.66862       43.61490
H         93.12731       19.51608       43.95907
H         94.74125       20.27491       44.33864
H         94.12703       20.25180       42.67107
H         95.14291       18.22267       42.40539
Ca        93.28077       15.51470       31.96400
O         94.69821       17.54008       34.48627
H         94.77120       16.81024       35.15177
H         94.32270       18.30240       34.99477
O         92.17475       13.35362       33.60437
H         93.04138       13.47916       34.06718
H         92.41378       12.93713       32.73833
O         91.74410       16.12389       34.95725
H         92.20417       16.78280       35.53407
H         91.44697       15.41445       35.58055
O         95.81265       17.41895       30.77039
H         95.74800       16.47354       30.48315
H         96.28891       17.38456       31.63766
O         95.97649       14.71716       32.78960
H         96.24862       15.05415       33.67956
H         95.50001       13.86993       32.97835

Ca 1.0



