%chk=apoCaM-CA-Ng.loop4.water4.frame738.chk
%nprocshared=20
%mem=10GB
%nosave
#b3lyp/svp scf=(tight,noincore,xqc) Test 
#IOP(5/87=12) Density=Current Pop=(MK,readradii) iop(6/33=2) iop(6/42=6)

apoCaM-CA-Ng.loop4.water4.frame738 

   -3  1 
C         25.76631       12.71623       -4.76318
C         27.25137       12.52769       -4.91428
O         27.65949       11.67506       -5.68874
H         25.29656       11.76946       -4.42539
H         25.52856       13.51012       -4.02333
H         25.32562       13.00911       -5.74021
N         28.12318       13.32097       -4.22483
C         29.58192       13.24932       -4.32681
C         30.01746       13.40613       -5.76086
O         30.73689       12.56037       -6.27802
C         30.14327       11.96341       -3.67768
C         29.73631       11.92023       -2.24162
O         30.04958       12.81218       -1.47035
O         28.88059       10.96975       -1.86200
H         27.73502       14.05537       -3.61331
H         30.00727       14.11051       -3.76567
H         31.25169       11.93505       -3.74253
H         29.74015       11.07002       -4.20638
N         29.58379       14.47418       -6.48401
C         29.97286       14.64712       -7.87556
C         31.46324       15.01147       -7.93493
O         31.96876       15.52677       -6.94657
C         29.06642       15.69719       -8.60967
C         29.33974       17.15383       -8.16025
C         27.57550       15.31871       -8.47193
C         28.60212       18.18780       -9.01551
H         28.94044       15.14313       -6.03649
H         29.79122       13.67012       -8.37623
H         29.29815       15.65660       -9.68795
H         30.42126       17.37046       -8.28804
H         29.07932       17.29450       -7.09045
H         27.41787       14.27196       -8.79194
H         27.21656       15.41918       -7.42702
H         26.93484       15.95461       -9.11473
H         27.50348       18.10642       -8.89766
H         28.90367       19.20914       -8.70380
H         28.86738       18.05680      -10.08757
N         32.24445       14.84153       -9.03999
C         31.81457       14.14021      -10.23794
C         31.71271       12.64111      -10.02035
O         31.08915       11.99930      -10.84507
C         32.71897       14.47112      -11.44574
C         34.16432       14.05597      -11.31712
O         34.93714       14.30639      -12.22756
O         34.62444       13.42031      -10.22211
H         33.20449       15.21782       -9.00563
H         30.82003       14.51258      -10.52656
H         32.68807       15.57175      -11.60264
H         32.29713       13.98653      -12.35334
N         32.29765       12.00377       -8.96124
C         32.23419       10.56160       -8.78159
C         32.93711        9.83782       -9.91113
O         34.13183       10.02976      -10.08699
H         32.81882       12.54504       -8.25671
H         31.16924       10.25298       -8.70402
H         32.73617       10.28046       -7.83020
N         32.24030        8.99388      -10.72319
C         32.82390        8.26907      -11.85117
C         32.25620        8.74738      -13.18622
O         32.58444        8.15594      -14.20505
C         32.66870        6.73481      -11.65559
C         31.27214        6.17340      -11.52298
O         30.28596        6.88730      -11.51100
O         31.11447        4.84285      -11.39174
H         31.23194        8.88355      -10.54595
H         33.91937        8.45112      -11.91187
H         33.22489        6.44229      -10.73968
H         33.15354        6.22529      -12.51688
N         31.44872        9.84687      -13.27247
C         30.87010       10.33261      -14.51315
C         29.73069        9.46022      -14.99200
O         29.21283        9.72168      -16.06730
H         31.24154       10.38514      -12.43370
H         31.66918       10.41403      -15.28247
H         30.44866       11.34901      -14.35302
N         29.27785        8.41319      -14.23960
C         28.24649        7.47103      -14.64606
C         26.86856        8.11275      -14.71814
O         25.96892        7.51281      -15.29100
C         28.68186        6.71277      -15.92271
C         30.08296        6.09178      -15.72173
C         30.60740        5.33014      -16.90812
N         31.85458        4.80587      -16.85991
O         29.92882        5.19101      -17.91494
H         29.69875        8.23619      -13.32655
H         28.15686        6.69648      -13.85122
H         28.70801        7.39906      -16.79448
H         27.94697        5.90656      -16.13703
H         30.06934        5.41324      -14.84072
H         30.81067        6.90389      -15.52754
H         32.44247        4.92715      -16.02089
H         32.24031        4.28877      -17.66319
N         26.60231        9.27764      -14.05204
C         25.28155        9.89463      -13.97828
C         24.75993        9.96929      -12.54134
O         23.65790       10.46702      -12.36908
C         25.29975       11.31026      -14.62668
C         26.28670       12.27457      -13.94370
C         25.60403       11.21771      -16.12729
H         27.36405        9.74195      -13.53745
H         24.53559        9.28721      -14.53797
H         24.28048       11.74753      -14.53194
H         26.05219       12.37545      -12.86372
H         27.33581       11.93015      -14.05513
H         26.21111       13.28248      -14.40391
H         24.85072       10.57235      -16.62814
H         25.55326       12.22601      -16.59088
H         26.61412       10.79361      -16.30464
N         25.47074        9.49649      -11.46773
C         24.98318        9.59729      -10.09028
C         24.76870        8.21995       -9.48719
O         25.09091        7.21975      -10.10584
C         25.98265       10.41090       -9.24676
C         26.13380       11.81306       -9.77449
N         25.08874       12.67420       -9.75694
O         27.21376       12.17675      -10.21531
H         26.38794        9.05407      -11.60814
H         23.99391       10.10149      -10.06375
H         26.96786        9.89368       -9.26581
H         25.65165       10.47789       -8.18818
H         24.17516       12.38814       -9.37518
H         25.19418       13.63515      -10.11430
N         24.13788        8.11802       -8.27911
C         23.77459        6.82989       -7.68292
C         22.66617        6.99458       -6.64457
O         22.21099        8.10415       -6.42674
C         25.00815        6.10554       -7.09205
C         25.50694        6.69504       -5.78777
C         26.09940        7.96820       -5.72811
C         25.37873        5.94665       -4.60217
C         26.55648        8.47534       -4.50443
C         25.82866        6.45783       -3.38514
C         26.42118        7.71901       -3.33074
O         26.85717        8.18805       -2.14623
H         23.82791        8.99312       -7.83748
H         23.34422        6.19297       -8.48603
H         25.83505        6.05115       -7.83105
H         24.70240        5.05427       -6.90534
H         26.21871        8.56285       -6.62321
H         24.92326        4.96449       -4.61417
H         27.01823        9.45213       -4.46629
H         25.71844        5.87063       -2.48187
H         27.27891        9.05178       -2.06075
N         22.18297        5.91273       -5.95942
C         21.13546        6.03683       -4.95381
C         21.71103        5.67504       -3.59678
O         21.88962        4.49338       -3.33914
C         19.94032        5.12416       -5.29639
C         19.32371        5.45407       -6.66098
C         18.17589        4.53101       -6.95513
O         18.21194        3.79641       -7.92950
O         17.09984        4.50935       -6.14529
H         22.57981        4.98003       -6.13381
H         20.75057        7.06778       -4.92436
H         19.16542        5.23608       -4.50546
H         20.27825        4.06340       -5.31032
H         20.09543        5.34145       -7.45422
H         18.95810        6.50278       -6.66875
N         22.11600        6.60584       -2.68190
C         22.13796        8.05089       -2.89297
C         20.74941        8.65661       -2.91048
O         20.00113        8.45969       -1.96302
C         22.97020        8.72042       -1.78648
C         23.22260       10.20563       -2.07508
C         24.20479       10.73520       -1.08322
O         23.93383       10.81597        0.10322
O         25.44269       10.99166       -1.51980
H         22.53756        6.24201       -1.81131
H         22.67878        8.25280       -3.84413
H         23.96086        8.21252       -1.76400
H         22.49172        8.58990       -0.79120
H         22.29169       10.81059       -2.06924
H         23.68014       10.28210       -3.08804
N         20.36716        9.45847       -3.94438
C         19.08144       10.12039       -4.01407
H         18.43419        9.88151       -3.14483
H         19.23919       11.21962       -4.04063
H         18.55860        9.81037       -4.94220
H         21.02794        9.63790       -4.71440
Ca        27.30021       11.41940       -0.35906
O         29.05601       13.44246        1.40117
H         29.16137       13.93302        2.25429
H         29.96602       13.11265        1.19349
O         30.00298       10.27464        1.05849
H         29.69065       10.39456        1.99051
H         30.23423        9.31415        0.99467
O         25.91185       12.17061        2.33636
H         26.47017       12.01462        3.13875
H         25.25336       11.43167        2.34768
O         26.94009        8.89769        1.31370
H         27.76419        8.35749        1.40932
H         26.45571        8.47996        0.55814

Ca 1.0



