%chk=apoCaM-CA-Ng.loop1.water1.frame808.chk
%nprocshared=20
%mem=10GB
%nosave
#b3lyp/svp scf=(tight,noincore,xqc) Test 
#IOP(5/87=12) Density=Current Pop=(MK,readradii) iop(6/33=2) iop(6/42=6)

apoCaM-CA-Ng.loop1.water1.frame808 

   0  1 
C        122.37581       84.69792       61.33210
C        122.64146       86.10727       60.87542
O        123.71353       86.63133       61.13624
H        121.37326       84.34499       61.00323
H        123.13717       84.01339       60.90608
H        122.40943       84.64788       62.44010
N        121.67837       86.78651       60.20154
C        121.79038       88.16218       59.72200
C        120.84961       89.02876       60.53586
O        119.71457       88.64074       60.77060
C        121.57047       88.23890       58.19062
C        120.59329       87.21748       57.66027
O        119.29812       87.20734       58.02405
O        121.00453       86.33031       56.92839
H        120.77711       86.30699       60.05139
H        122.81043       88.57095       59.89578
H        122.55044       87.99375       57.72158
H        121.32057       89.27710       57.87861
N        121.32363       90.16859       61.11930
C        120.59395       90.87897       62.16037
C        119.29167       91.52743       61.71617
O        118.55214       91.93200       62.60451
C        121.52011       91.89894       62.86899
C        121.80979       93.16474       62.04097
C        122.89697       94.01746       62.71513
C        123.05082       95.41957       62.09939
N        123.32932       95.38875       60.66339
H        122.29310       90.45744       60.91649
H        120.34314       90.10806       62.92394
H        122.47099       91.37730       63.11998
H        121.05690       92.22165       63.82743
H        120.86792       93.75010       61.95954
H        122.15286       92.89248       61.02047
H        123.86375       93.46920       62.65844
H        122.64692       94.16455       63.78849
H        123.88550       95.93617       62.62458
H        122.12217       96.00505       62.27880
H        123.50428       96.36618       60.33492
H        124.17355       94.80535       60.46548
H        122.50246       95.01843       60.14207
N        118.93951       91.71777       60.40231
C        117.67955       92.39098       60.07071
C        116.48586       91.50583       60.44341
O        116.72134       90.35241       60.77763
C        117.67478       92.97868       58.63911
C        117.55035       92.11775       57.40870
O        117.45451       92.69232       56.33647
O        117.49582       90.77751       57.38779
H        119.59135       91.45004       59.65008
H        117.64942       93.29636       60.71491
H        118.58848       93.60100       58.52424
H        116.81901       93.67404       58.57926
N        115.18347       91.91909       60.50406
C        114.62658       93.22001       60.16915
C        115.22139       94.36133       60.95481
O        115.40356       94.23719       62.15786
H        114.49648       91.22364       60.83794
H        113.54289       93.19203       60.41601
H        114.68621       93.40195       59.07744
N        115.48113       95.54275       60.32373
C        116.05096       96.71403       60.98275
C        115.02828       97.83260       61.10272
O        113.90015       97.67870       60.65258
C        117.33857       97.15001       60.24771
C        117.15081       97.61538       58.82141
O        115.93132       97.69641       58.25343
O        118.12985       97.93825       58.16883
H        115.23213       95.61942       59.32728
H        116.33724       96.45586       62.02589
H        118.03570       96.28427       60.24508
H        117.82766       97.97245       60.81066
N        115.34874       98.98098       61.76677
C        114.39106      100.04253       62.03281
C        113.33583       99.65154       63.05441
O        112.50167      100.49312       63.35934
H        116.30864       99.10922       62.11916
H        113.92191      100.37415       61.08178
H        114.93540      100.91087       62.46573
N        113.32840       98.42577       63.66020
C        112.39087       98.03916       64.70645
C        111.57910       96.82778       64.29243
O        111.83005       96.24683       63.24364
C        113.16334       97.74054       66.02244
C        114.17818       96.58511       65.89594
O        113.80076       98.90046       66.49549
H        114.03552       97.72860       63.40382
H        111.66936       98.86321       64.90385
H        112.42786       97.43841       66.79782
H        114.51353       99.14260       65.84852
H        114.99248       96.83173       65.18380
H        114.64429       96.38406       66.88194
H        113.67989       95.65512       65.55043
N        110.55991       96.40700       65.09018
C        109.73501       95.24308       64.80944
C        108.38156       95.74170       64.36590
O        107.97841       95.42782       63.25506
C        109.65670       94.31473       66.06089
C        111.08206       93.87084       66.48357
C        108.74990       93.09930       65.77904
C        111.12186       93.02044       67.75534
H        110.33221       96.96382       65.92911
H        110.16455       94.65049       63.96912
H        109.20904       94.88694       66.90397
H        111.69075       94.77562       66.69181
H        111.56676       93.30799       65.65645
H        109.16841       92.48017       64.95748
H        108.63051       92.46886       66.68296
H        107.72794       93.42718       65.49589
H        110.65262       93.56639       68.60105
H        110.61044       92.04772       67.61123
H        112.17918       92.80377       68.01731
N        107.64010       96.55316       65.17227
C        106.34736       97.09058       64.77195
C        105.25854       96.59753       65.69489
O        105.54132       95.99369       66.72016
C        106.38471       98.64191       64.70507
C        106.75407       99.30892       66.03711
O        107.31060       99.05097       63.73218
H        108.00540       96.79880       66.10326
H        106.07829       96.72126       63.75867
H        105.37184       99.02309       64.43307
H        106.84509       99.00949       62.85579
H        106.04272       99.01762       66.83791
H        107.78501       99.04022       66.34842
H        106.71663      100.41346       65.92331
N        103.96176       96.80430       65.34291
C        102.82850       96.38910       66.14896
C        102.04808       95.30897       65.41954
O        101.86514       94.23851       65.98387
C        101.96776       97.63463       66.49519
C        100.77413       97.28618       67.38517
O        101.49008       98.27039       65.33579
H        103.77053       97.27203       64.44451
H        103.17211       95.95797       67.11638
H        102.60203       98.34424       67.07969
H        102.15324       98.96457       65.08202
H        101.12066       96.81369       68.32813
H        100.21594       98.21299       67.63803
H        100.08158       96.59362       66.86125
N        101.53061       95.53186       64.17930
C        100.64521       94.59824       63.49458
C        101.13906       94.25707       62.10111
O        101.60846       95.13830       61.39291
C         99.22196       95.19197       63.43823
C         99.11016       96.52752       62.67261
C         97.70903       97.14590       62.74606
C         96.62713       96.28832       62.07486
N         95.33265       96.96534       62.12369
H        101.71961       96.43477       63.72439
H        100.54077       93.65232       64.07161
H         98.88281       95.35421       64.48520
H         98.55609       94.43480       62.97346
H         99.39320       96.38922       61.60789
H         99.79615       97.27243       63.12334
H         97.74962       98.12957       62.22907
H         97.44165       97.32526       63.81059
H         96.53539       95.30928       62.59090
H         96.90631       96.10500       61.01348
H         95.05240       97.13055       63.11794
H         95.38562       97.87825       61.61590
H         94.61336       96.36229       61.66376
N        100.93992       93.00473       61.59831
C        101.22786       92.65691       60.21179
C        102.71372       92.78477       59.89246
O        103.02618       93.55031       58.99178
C        100.64875       91.26631       59.84790
C        100.71277       90.99193       58.33666
C        100.04369       89.68972       57.99871
O         99.07408       89.67201       57.25672
O        100.51224       88.53443       58.50781
H        100.48859       92.29906       62.20151
H        100.66501       93.37841       59.57484
H         99.57536       91.25835       60.14264
H        101.15612       90.44838       60.39661
H        101.76826       90.95434       57.99403
H        100.19508       91.81539       57.79552
N        103.71117       92.11325       60.54275
C        103.55073       91.20762       61.66245
H        102.50779       91.08792       61.99362
H        103.94990       90.20925       61.38729
H        104.12866       91.59653       62.52681
H        104.68112       92.27263       60.22819
Ca       118.16906       89.05016       58.60547
O        116.68771       87.38051       56.60020
H        116.96037       88.07016       55.94385
H        115.96588       86.87565       56.14945

Ca 1.0



