%chk=apoCaM-CA-Ng.loop3.water3.frame910.chk
%nprocshared=20
%mem=10GB
%nosave
#b3lyp/svp scf=(tight,noincore,xqc) Test 
#IOP(5/87=12) Density=Current Pop=(MK,readradii) iop(6/33=2) iop(6/42=6)

apoCaM-CA-Ng.loop3.water3.frame910 

   0  1 
C         97.12773      -12.66466       39.66423
C         96.93727      -13.80531       40.61803
O         97.80865      -14.05485       41.43870
H         98.09478      -12.15084       39.84961
H         97.10804      -13.04000       38.62062
H         96.30568      -11.92968       39.80300
N         95.78061      -14.52194       40.59003
C         95.48475      -15.58045       41.55438
C         96.35194      -16.81453       41.26167
O         96.89668      -16.89118       40.16850
C         93.96574      -15.89887       41.47379
C         93.33687      -16.40462       42.74537
O         92.29053      -15.74682       43.27574
O         93.72976      -17.41015       43.29485
H         95.06197      -14.24140       39.90372
H         95.69669      -15.16207       42.55747
H         93.77390      -16.57554       40.61419
H         93.41573      -14.95448       41.26778
N         96.51417      -17.82270       42.17180
C         97.23293      -19.07334       41.87065
C         96.30763      -20.29663       41.93014
O         96.68024      -21.33814       41.40700
C         98.50082      -19.22460       42.74664
C         98.20788      -19.29289       44.25284
C         99.49106      -19.32150       45.09519
C         99.15052      -19.36606       46.59411
N        100.35747      -19.29621       47.41700
H         96.10758      -17.69216       43.10494
H         97.58875      -19.03798       40.81810
H         99.15474      -18.34619       42.55117
H         99.05727      -20.13851       42.44095
H         97.58995      -20.19122       44.47155
H         97.65669      -18.38195       44.54512
H        100.07891      -18.40103       44.88436
H        100.10741      -20.20770       44.82840
H         98.60201      -20.30829       46.81827
H         98.49290      -18.50747       46.85527
H        100.84099      -18.38126       47.26286
H        100.08715      -19.36597       48.42472
H        101.00409      -20.08414       47.18517
N         95.07950      -20.23191       42.51820
C         94.05035      -21.26526       42.48870
C         92.73812      -20.72801       41.87895
O         91.76943      -21.47190       41.82704
C         93.83575      -21.82386       43.91306
C         93.59246      -20.76906       44.95480
O         94.40426      -20.68277       46.02491
O         92.66916      -19.98708       44.84091
H         94.83334      -19.38946       43.03271
H         94.36590      -22.12395       41.85576
H         94.74780      -22.38359       44.21252
H         92.98801      -22.54233       43.90444
N         92.65271      -19.47192       41.34357
C         91.49091      -18.93559       40.64627
C         90.27650      -18.55373       41.48137
O         89.36030      -18.01940       40.87147
H         93.49284      -18.88377       41.31201
H         91.18673      -19.63891       39.84088
H         91.80921      -17.99301       40.14887
N         90.15268      -18.77858       42.82689
C         88.94260      -18.39664       43.57281
C         89.22639      -17.56856       44.82657
O         90.37509      -17.37512       45.19091
C         88.07094      -19.64927       43.85529
C         88.58850      -20.74570       44.76950
N         89.74775      -20.66329       45.46164
O         87.90529      -21.75152       44.88985
H         90.90196      -19.27958       43.31308
H         88.30854      -17.74632       42.93148
H         87.86652      -20.11762       42.86738
H         87.09161      -19.32302       44.26562
H         90.34338      -19.83483       45.42684
H         90.04823      -21.44230       46.06612
N         88.18455      -17.03965       45.53133
C         88.29537      -16.31090       46.78985
C         89.13989      -15.05633       46.70973
O         88.97438      -14.27727       45.78203
H         87.22993      -17.18338       45.16874
H         88.67964      -16.98627       47.58469
H         87.27086      -16.00121       47.09061
N         90.01693      -14.76099       47.71742
C         90.85447      -13.55949       47.74084
C         91.93747      -13.62498       46.67277
O         91.98905      -14.59547       45.93318
C         91.50502      -13.37929       49.13945
C         90.51250      -13.03147       50.22627
C         90.37765      -13.84656       51.36199
C         89.74642      -11.85335       50.13671
C         89.49605      -13.48861       52.38866
C         88.86334      -11.50079       51.16099
C         88.73723      -12.31269       52.29144
O         87.89261      -11.94934       53.27793
H         90.06070      -15.40265       48.52455
H         90.22797      -12.66570       47.53283
H         92.22303      -12.53555       49.13068
H         92.08087      -14.29451       49.39517
H         90.96412      -14.75087       51.46149
H         89.83906      -11.19701       49.28082
H         89.40966      -14.12116       53.26290
H         88.28426      -10.58884       51.08016
H         87.78604      -12.47325       54.08462
N         92.83234      -12.59669       46.53692
C         93.89767      -12.50847       45.53747
C         94.92475      -13.63210       45.72194
O         94.55698      -14.79160       45.61451
C         93.30039      -12.46165       44.09526
C         94.37136      -12.20601       43.00211
C         92.15736      -11.43084       43.98546
C         95.06404      -10.84045       43.07056
H         92.74203      -11.78503       47.16524
H         94.41013      -11.53902       45.70812
H         92.85020      -13.44548       43.87186
H         93.88503      -12.28993       42.00504
H         95.14935      -12.99109       43.06056
H         91.32256      -11.69214       44.66928
H         92.50269      -10.41013       44.24755
H         91.74233      -11.42367       42.95496
H         95.62070      -10.71560       44.02019
H         95.79223      -10.75948       42.23697
H         94.33346      -10.01334       42.95842
N         96.24679      -13.35994       45.96145
C         97.25402      -14.41182       46.12498
C         98.16418      -14.13960       47.31931
O         98.87211      -13.14261       47.31568
C         98.08067      -14.53322       44.84159
O         99.00630      -15.57852       44.96489
H         96.56010      -12.37804       45.96439
H         96.75631      -15.39243       46.26773
H         98.60865      -13.57756       44.63143
H         97.38199      -14.76055       44.01012
H         99.41491      -15.69241       44.06771
N         98.19590      -15.00599       48.37427
C         99.05563      -14.85811       49.55044
C         99.79935      -16.17567       49.80354
O         99.13728      -17.20346       49.81222
C         98.17412      -14.50498       50.74731
H         97.54489      -15.80620       48.36222
H         99.75967      -14.00965       49.42789
H         97.42689      -15.30083       50.94408
H         98.79057      -14.35199       51.65490
H         97.64154      -13.55159       50.53998
N        101.14973      -16.27902       50.01761
C        102.05591      -15.14834       50.18355
C        101.74737      -14.42335       51.49160
O        101.09818      -15.01580       52.34311
C        103.51351      -15.64229       50.23456
H        101.54263      -17.23063       50.10729
H        101.93531      -14.49022       49.29935
H        104.22977      -14.80311       50.34821
H        103.66033      -16.33454       51.09298
H        103.76524      -16.18404       49.29871
N        102.15749      -13.15211       51.76833
C        102.89104      -12.28542       50.85895
C        101.98576      -11.13806       50.46085
O        101.71268      -10.99131       49.27743
C        104.19900      -11.81799       51.52714
C        105.08520      -11.02179       50.55881
C        106.37742      -10.62903       51.21482
O        107.44043      -11.02667       50.76489
O        106.37113       -9.82870       52.29793
H        101.88791      -12.75688       52.68352
H        103.17496      -12.82444       49.93593
H        104.76653      -12.71909       51.85009
H        103.97420      -11.21181       52.43228
H        104.56153      -10.10275       50.22095
H        105.30271      -11.65290       49.66826
N        101.45019      -10.30894       51.40191
C        100.52517       -9.23861       51.08819
H         99.56628       -9.41961       51.61885
H        100.94830       -8.27171       51.42915
H        100.30936       -9.16776       50.00138
H        101.68654      -10.44783       52.39532
Ca        93.01887      -17.34231       46.12483
O         95.83915      -17.74435       46.18163
H         95.95233      -18.15121       47.07615
H         95.60121      -18.49975       45.58918
O         91.58977      -19.03003       48.03913
H         92.37395      -19.36817       48.54039
H         91.22673      -18.30256       48.60434
O         94.04815      -15.95508       48.42420
H         94.41986      -15.04834       48.56271
H         94.50144      -16.52080       49.09781

Ca 1.0



